
=================
  PFLOTRAN v6.0
=================

"grid_structured_type" set to default value.
pflotran card:: NUMERICAL_METHODS
pflotran card:: GRID
pflotran card:: MATERIAL_PROPERTY
  Name :: soil1
pflotran card:: CHARACTERISTIC_CURVES
  Name :: cc1
 WARNING: Mualem-van Genuchten relative permeability function is being used without SMOOTH option.
pflotran card:: OUTPUT
pflotran card:: TIME
pflotran card:: REGION
all
pflotran card:: REGION
top
pflotran card:: REGION
bottom
pflotran card:: FLOW_CONDITION
initial_pressure
pflotran card:: FLOW_CONDITION
recharge
pflotran card:: INITIAL_CONDITION
"Initial Condition name" set to default value.
pflotran card:: BOUNDARY_CONDITION
pflotran card:: BOUNDARY_CONDITION
pflotran card:: STRATA
pflotran card:: END_SUBSURFACE

Extent of Gridded Domain
 X: 0.000000E+00 - 1.000000E+00
 Y: 0.000000E+00 - 1.000000E+00
 Z: 0.000000E+00 - 1.000000E+01

Size of Gridded Domain
 Number of grid cells: 100

Number of active grid cells: 100
Number of inactive grid cells: 0


=+=+=+=+=+=+=+=+=+=+=+=+=+=+=+=+=+=+=+=+=+=+=+=+=+=+=+=+=+=+=+=+=+=+=+=+=+=+=+=+

  Initial Condition

--------------------------------------------------------------------------------
          Flow Condition:   initial_pressure
                  Region:   all
--------------------------------------------------------------------------------

  Flow Condition: initial_pressure
    Synchronize time with update: no
    Time units: yr
    Length units: m
      Datum:
        Dataset: Unnamed Ascii Dataset
          Type: dataset_ascii_type
          Transient: no
          Array Rank:  3

    Sub Condition: pressure
      Type: hydrostatic
      Gradient:
      Data:
        Dataset: Unnamed Ascii Dataset
          Type: dataset_ascii_type
          Transient: no
          Array Rank:  1

--------------------------------------------------------------------------------

=+=+=+=+=+=+=+=+=+=+=+=+=+=+=+=+=+=+=+=+=+=+=+=+=+=+=+=+=+=+=+=+=+=+=+=+=+=+=+=+

  Boundary Condition

--------------------------------------------------------------------------------
          Flow Condition:   initial_pressure
                  Region:   bottom
--------------------------------------------------------------------------------

  Flow Condition: initial_pressure
    Synchronize time with update: no
    Time units: yr
    Length units: m
      Datum:
        Dataset: Unnamed Ascii Dataset
          Type: dataset_ascii_type
          Transient: no
          Array Rank:  3

    Sub Condition: pressure
      Type: hydrostatic
      Gradient:
      Data:
        Dataset: Unnamed Ascii Dataset
          Type: dataset_ascii_type
          Transient: no
          Array Rank:  1

--------------------------------------------------------------------------------

=+=+=+=+=+=+=+=+=+=+=+=+=+=+=+=+=+=+=+=+=+=+=+=+=+=+=+=+=+=+=+=+=+=+=+=+=+=+=+=+

  Boundary Condition

--------------------------------------------------------------------------------
          Flow Condition:   recharge
                  Region:   top
--------------------------------------------------------------------------------

  Flow Condition: recharge
    Synchronize time with update: no
    Time units: yr
    Length units: m
      Datum:

    Sub Condition: pressure
      Type: neumann
      Gradient:
      Data:
        Dataset: Unnamed Ascii Dataset
          Type: dataset_ascii_type
          Transient: no
          Array Rank:  1

--------------------------------------------------------------------------------
Default HDF5 method is used in Initialization
  Beginning setup of FLOW SNES
 number of dofs =   1, number of phases =   1
 mode = Richards: p
  Finished setting up FLOW SNES

 Requested processors and decomposition =     1, npx,y,z=   -1  -1  -1
 Actual decomposition: npx,y,z=    1   1   1


FLOW Time Stepper SNES
      maximum number of steps: 999999
constant time steps threshold: 5
       maximum number of cuts: 16
             reduction factor: 5.000000E-01
        maximum growth factor: 2.000000E+00
                 acceleration: on
       acceleration threshold: 5
       number of ramp entries: 5
                ramp entry #1: 2.0000
                ramp entry #2: 2.0000
                ramp entry #3: 2.0000
                ramp entry #4: 2.0000
                ramp entry #5: 2.0000
                ramp entry #6: 1.8000
                ramp entry #7: 1.6000
                ramp entry #8: 1.4000
                ramp entry #9: 1.2000
               ramp entry #10: 1.0000
               ramp entry #11: 1.0000
               ramp entry #12: 1.0000
               ramp entry #13: 1.0000

FLOW Newton Solver
                         atol: 1.000000E-50
                         rtol: 1.000000E-08
                         stol: 1.000000E-08
                         dtol: 1.000000E+04
                      maxnorm: 1.000000E+20
                    inftolres: -9.990000E+02
                    inftolupd: -9.990000E+02
                 inftolrelupd: -9.990000E+02
                 inftolsclres: -9.990000E+02
                     max iter: 50
                     min iter: 1
                         maxf: 10000
                  matrix type: baij
         precond. matrix type: baij
               inexact newton: off
            print convergence: on
   print detailed convergence: off
          check infinity norm: on

FLOW Linear Solver
                       solver: preonly
               preconditioner: lu
                         atol: 1.000000E-50
                         rtol: 1.000000E-05
                         dtol: 1.000000E+04
            maximum iteration: 10000

 --> write tecplot output file: 1D_vsat_flow-000.tec
      0.01 Seconds to write to Tecplot file(s)

 Finished Initialization


== RICHARDS FLOW ===============================================================
  0 2r: 1.76E-07 2x: 0.00E+00 2u: 0.00E+00 ir: 1.76E-07 iu: 0.00E+00 rsn:   0
  1 2r: 8.23E-10 2x: 6.83E+05 2u: 3.89E+02 ir: 8.20E-10 iu: 3.89E+02 rsn:   0
  2 2r: 1.79E-14 2x: 6.83E+05 2u: 1.80E+00 ir: 1.78E-14 iu: 1.80E+00 rsn:   0
  3 2r: 1.99E-17 2x: 6.83E+05 2u: 3.91E-05 ir: 1.13E-17 iu: 3.90E-05 rsn: rtol

 Step      1 Time=  1.14155E-04 Dt=  1.14155E-04 [y] conv_reason: 3
  newton =   3 [       3] linear =     3 [         3] cuts =  0 [   0]
  --> SNES Linear/Non-Linear Iterations = 3 / 3
  --> SNES Residual: 0.198740E-16 0.198740E-18 0.113299E-16
  --> max change: dpmx=   3.8692E+02

== RICHARDS FLOW ===============================================================
  0 2r: 1.72E-07 2x: 0.00E+00 2u: 0.00E+00 ir: 1.72E-07 iu: 0.00E+00 rsn:   0
  1 2r: 1.66E-09 2x: 6.83E+05 2u: 7.43E+02 ir: 1.64E-09 iu: 7.42E+02 rsn:   0
  2 2r: 1.50E-13 2x: 6.83E+05 2u: 6.93E+00 ir: 1.48E-13 iu: 6.90E+00 rsn:   0
  3 2r: 2.59E-17 2x: 6.83E+05 2u: 6.28E-04 ir: 1.66E-17 iu: 6.24E-04 rsn: rtol

 Step      2 Time=  3.42466E-04 Dt=  2.28311E-04 [y] conv_reason: 3
  newton =   3 [       6] linear =     3 [         6] cuts =  0 [   0]
  --> SNES Linear/Non-Linear Iterations = 3 / 3
  --> SNES Residual: 0.259428E-16 0.259428E-18 0.165612E-16
  --> max change: dpmx=   7.3502E+02

== RICHARDS FLOW ===============================================================
  0 2r: 1.66E-07 2x: 0.00E+00 2u: 0.00E+00 ir: 1.66E-07 iu: 0.00E+00 rsn:   0
  1 2r: 3.33E-09 2x: 6.83E+05 2u: 1.37E+03 ir: 3.23E-09 iu: 1.36E+03 rsn:   0
  2 2r: 1.29E-12 2x: 6.83E+05 2u: 2.52E+01 ir: 1.23E-12 iu: 2.49E+01 rsn:   0
  3 2r: 1.67E-17 2x: 6.83E+05 2u: 9.67E-03 ir: 8.94E-18 iu: 9.46E-03 rsn: rtol

 Step      3 Time=  7.99087E-04 Dt=  4.56621E-04 [y] conv_reason: 3
  newton =   3 [       9] linear =     3 [         9] cuts =  0 [   0]
  --> SNES Linear/Non-Linear Iterations = 3 / 3
  --> SNES Residual: 0.166516E-16 0.166516E-18 0.894467E-17
  --> max change: dpmx=   1.3304E+03

== RICHARDS FLOW ===============================================================
  0 2r: 1.55E-07 2x: 0.00E+00 2u: 0.00E+00 ir: 1.53E-07 iu: 0.00E+00 rsn:   0
  1 2r: 6.31E-09 2x: 6.83E+05 2u: 2.37E+03 ir: 5.99E-09 iu: 2.29E+03 rsn:   0
  2 2r: 1.01E-11 2x: 6.83E+05 2u: 7.88E+01 ir: 9.07E-12 iu: 7.78E+01 rsn:   0
  3 2r: 3.34E-17 2x: 6.83E+05 2u: 1.21E-01 ir: 2.12E-17 iu: 1.15E-01 rsn: rtol

 Step      4 Time=  1.71233E-03 Dt=  9.13242E-04 [y] conv_reason: 3
  newton =   3 [      12] linear =     3 [        12] cuts =  0 [   0]
  --> SNES Linear/Non-Linear Iterations = 3 / 3
  --> SNES Residual: 0.334160E-16 0.334160E-18 0.212385E-16
  --> max change: dpmx=   2.2123E+03

== RICHARDS FLOW ===============================================================
  0 2r: 1.38E-07 2x: 0.00E+00 2u: 0.00E+00 ir: 1.33E-07 iu: 0.00E+00 rsn:   0
  1 2r: 9.85E-09 2x: 6.83E+05 2u: 3.89E+03 ir: 9.41E-09 iu: 3.44E+03 rsn:   0
  2 2r: 5.31E-11 2x: 6.83E+05 2u: 1.87E+02 ir: 4.40E-11 iu: 1.86E+02 rsn:   0
  3 2r: 1.18E-15 2x: 6.83E+05 2u: 8.48E-01 ir: 9.80E-16 iu: 7.88E-01 rsn: rtol

 Step      5 Time=  3.53881E-03 Dt=  1.82648E-03 [y] conv_reason: 3
  newton =   3 [      15] linear =     3 [        15] cuts =  0 [   0]
  --> SNES Linear/Non-Linear Iterations = 3 / 3
  --> SNES Residual: 0.117694E-14 0.117694E-16 0.980129E-15
  --> max change: dpmx=   3.2528E+03

== RICHARDS FLOW ===============================================================
  0 2r: 1.17E-07 2x: 0.00E+00 2u: 0.00E+00 ir: 1.04E-07 iu: 0.00E+00 rsn:   0
  1 2r: 1.13E-08 2x: 6.84E+05 2u: 6.20E+03 ir: 1.08E-08 iu: 4.53E+03 rsn:   0
  2 2r: 1.12E-10 2x: 6.84E+05 2u: 3.72E+02 ir: 1.00E-10 iu: 3.26E+02 rsn:   0
  3 2r: 1.10E-14 2x: 6.84E+05 2u: 2.57E+00 ir: 8.49E-15 iu: 2.46E+00 rsn:   0
  4 2r: 2.04E-17 2x: 6.84E+05 2u: 1.92E-04 ir: 1.30E-17 iu: 1.78E-04 rsn: rtol

 Step      6 Time=  7.19178E-03 Dt=  3.65297E-03 [y] conv_reason: 3
  newton =   4 [      19] linear =     4 [        19] cuts =  0 [   0]
  --> SNES Linear/Non-Linear Iterations = 4 / 4
  --> SNES Residual: 0.204485E-16 0.204485E-18 0.130189E-16
  --> max change: dpmx=   4.2017E+03

== RICHARDS FLOW ===============================================================
  0 2r: 9.74E-08 2x: 0.00E+00 2u: 0.00E+00 ir: 7.38E-08 iu: 0.00E+00 rsn:   0
  1 2r: 4.18E-09 2x: 6.84E+05 2u: 4.02E+03 ir: 3.29E-09 iu: 2.50E+03 rsn:   0
  2 2r: 9.65E-12 2x: 6.84E+05 2u: 1.33E+02 ir: 6.39E-12 iu: 9.58E+01 rsn:   0
  3 2r: 4.28E-17 2x: 6.84E+05 2u: 2.38E-01 ir: 2.54E-17 iu: 1.76E-01 rsn: rtol

 Step      7 Time=  1.00000E-02 Dt=  2.80822E-03 [y] conv_reason: 3
  newton =   3 [      22] linear =     3 [        22] cuts =  0 [   0]
  --> SNES Linear/Non-Linear Iterations = 3 / 3
  --> SNES Residual: 0.428072E-16 0.428072E-18 0.254203E-16
  --> max change: dpmx=   2.4162E+03

 --> write tecplot output file: 1D_vsat_flow-001.tec
      0.00 Seconds to write to Tecplot file(s)

== RICHARDS FLOW ===============================================================
  0 2r: 8.84E-08 2x: 0.00E+00 2u: 0.00E+00 ir: 5.91E-08 iu: 0.00E+00 rsn:   0
  1 2r: 9.46E-09 2x: 6.85E+05 2u: 8.88E+03 ir: 8.00E-09 iu: 5.03E+03 rsn:   0
  2 2r: 1.30E-10 2x: 6.85E+05 2u: 5.66E+02 ir: 1.18E-10 iu: 3.87E+02 rsn:   0
  3 2r: 1.98E-14 2x: 6.85E+05 2u: 4.29E+00 ir: 1.68E-14 iu: 3.40E+00 rsn:   0
  4 2r: 1.84E-17 2x: 6.85E+05 2u: 3.77E-04 ir: 8.65E-18 iu: 3.31E-04 rsn: rtol

 Step      8 Time=  1.73059E-02 Dt=  7.30594E-03 [y] conv_reason: 3
  newton =   4 [      26] linear =     4 [        26] cuts =  0 [   0]
  --> SNES Linear/Non-Linear Iterations = 4 / 4
  --> SNES Residual: 0.184045E-16 0.184045E-18 0.864567E-17
  --> max change: dpmx=   4.6427E+03

== RICHARDS FLOW ===============================================================
  0 2r: 7.59E-08 2x: 0.00E+00 2u: 0.00E+00 ir: 4.27E-08 iu: 0.00E+00 rsn:   0
  1 2r: 1.40E-08 2x: 6.86E+05 2u: 1.42E+04 ir: 1.00E-08 iu: 6.90E+03 rsn:   0
  2 2r: 4.12E-10 2x: 6.86E+05 2u: 1.22E+03 ir: 2.66E-10 iu: 7.09E+02 rsn:   0
  3 2r: 2.20E-13 2x: 6.86E+05 2u: 1.81E+01 ir: 1.67E-13 iu: 1.21E+01 rsn:   0
  4 2r: 2.22E-17 2x: 6.86E+05 2u: 5.76E-03 ir: 1.40E-17 iu: 4.34E-03 rsn: rtol

 Step      9 Time=  3.19178E-02 Dt=  1.46119E-02 [y] conv_reason: 3
  newton =   4 [      30] linear =     4 [        30] cuts =  0 [   0]
  --> SNES Linear/Non-Linear Iterations = 4 / 4
  --> SNES Residual: 0.222030E-16 0.222030E-18 0.140480E-16
  --> max change: dpmx=   6.1806E+03

== RICHARDS FLOW ===============================================================
  0 2r: 6.36E-08 2x: 0.00E+00 2u: 0.00E+00 ir: 3.02E-08 iu: 0.00E+00 rsn:   0
  1 2r: 1.97E-08 2x: 6.89E+05 2u: 2.19E+04 ir: 1.10E-08 iu: 8.89E+03 rsn:   0
  2 2r: 1.01E-09 2x: 6.89E+05 2u: 2.41E+03 ir: 6.23E-10 iu: 1.19E+03 rsn:   0
  3 2r: 1.73E-12 2x: 6.89E+05 2u: 6.43E+01 ir: 1.32E-12 iu: 3.78E+01 rsn:   0
  4 2r: 2.65E-17 2x: 6.89E+05 2u: 6.26E-02 ir: 1.36E-17 iu: 4.33E-02 rsn: rtol

 Step     10 Time=  6.11416E-02 Dt=  2.92237E-02 [y] conv_reason: 3
  newton =   4 [      34] linear =     4 [        34] cuts =  0 [   0]
  --> SNES Linear/Non-Linear Iterations = 4 / 4
  --> SNES Residual: 0.265026E-16 0.265026E-18 0.136249E-16
  --> max change: dpmx=   7.7254E+03

== RICHARDS FLOW ===============================================================
  0 2r: 5.22E-08 2x: 0.00E+00 2u: 0.00E+00 ir: 2.05E-08 iu: 0.00E+00 rsn:   0
  1 2r: 1.32E-08 2x: 6.93E+05 2u: 2.21E+04 ir: 6.39E-09 iu: 7.73E+03 rsn:   0
  2 2r: 5.14E-10 2x: 6.93E+05 2u: 2.19E+03 ir: 2.73E-10 iu: 9.37E+02 rsn:   0
  3 2r: 5.66E-13 2x: 6.93E+05 2u: 4.51E+01 ir: 3.56E-13 iu: 2.31E+01 rsn:   0
  4 2r: 2.62E-17 2x: 6.93E+05 2u: 2.65E-02 ir: 1.37E-17 iu: 1.60E-02 rsn: rtol

 Step     11 Time=  1.00000E-01 Dt=  3.88584E-02 [y] conv_reason: 3
  newton =   4 [      38] linear =     4 [        38] cuts =  0 [   0]
  --> SNES Linear/Non-Linear Iterations = 4 / 4
  --> SNES Residual: 0.262131E-16 0.262131E-18 0.136512E-16
  --> max change: dpmx=   6.8216E+03

 --> write tecplot output file: 1D_vsat_flow-002.tec
      0.00 Seconds to write to Tecplot file(s)

== RICHARDS FLOW ===============================================================
  0 2r: 4.43E-08 2x: 0.00E+00 2u: 0.00E+00 ir: 1.49E-08 iu: 0.00E+00 rsn:   0
  1 2r: 9.57E-09 2x: 6.98E+05 2u: 2.24E+04 ir: 4.03E-09 iu: 6.95E+03 rsn:   0
  2 2r: 3.05E-10 2x: 6.98E+05 2u: 2.06E+03 ir: 1.47E-10 iu: 7.82E+02 rsn:   0
  3 2r: 2.50E-13 2x: 6.98E+05 2u: 3.57E+01 ir: 1.48E-13 iu: 1.65E+01 rsn:   0
  4 2r: 1.92E-17 2x: 6.98E+05 2u: 1.49E-02 ir: 9.16E-18 iu: 8.30E-03 rsn: rtol

 Step     12 Time=  1.50000E-01 Dt=  5.00000E-02 [y] conv_reason: 3
  newton =   4 [      42] linear =     4 [        42] cuts =  0 [   0]
  --> SNES Linear/Non-Linear Iterations = 4 / 4
  --> SNES Residual: 0.191565E-16 0.191565E-18 0.916363E-17
  --> max change: dpmx=   6.1660E+03

== RICHARDS FLOW ===============================================================
  0 2r: 3.84E-08 2x: 0.00E+00 2u: 0.00E+00 ir: 1.13E-08 iu: 0.00E+00 rsn:   0
  1 2r: 5.20E-09 2x: 7.03E+05 2u: 1.81E+04 ir: 1.99E-09 iu: 5.09E+03 rsn:   0
  2 2r: 8.91E-11 2x: 7.03E+05 2u: 1.29E+03 ir: 4.09E-11 iu: 4.47E+02 rsn:   0
  3 2r: 2.33E-14 2x: 7.03E+05 2u: 1.23E+01 ir: 1.28E-14 iu: 5.27E+00 rsn:   0
  4 2r: 1.86E-17 2x: 7.03E+05 2u: 1.61E-03 ir: 8.42E-18 iu: 8.37E-04 rsn: rtol

 Step     13 Time=  2.00000E-01 Dt=  5.00000E-02 [y] conv_reason: 3
  newton =   4 [      46] linear =     4 [        46] cuts =  0 [   0]
  --> SNES Linear/Non-Linear Iterations = 4 / 4
  --> SNES Residual: 0.186162E-16 0.186162E-18 0.841707E-17
  --> max change: dpmx=   4.6566E+03

== RICHARDS FLOW ===============================================================
  0 2r: 3.45E-08 2x: 0.00E+00 2u: 0.00E+00 ir: 9.21E-09 iu: 0.00E+00 rsn:   0
  1 2r: 3.33E-09 2x: 7.08E+05 2u: 1.52E+04 ir: 1.18E-09 iu: 4.00E+03 rsn:   0
  2 2r: 3.50E-11 2x: 7.08E+05 2u: 8.86E+02 ir: 1.53E-11 iu: 2.88E+02 rsn:   0
  3 2r: 3.71E-15 2x: 7.08E+05 2u: 5.38E+00 ir: 1.89E-15 iu: 2.15E+00 rsn:   0
  4 2r: 1.74E-17 2x: 7.08E+05 2u: 2.86E-04 ir: 1.16E-17 iu: 1.39E-04 rsn: rtol

 Step     14 Time=  2.50000E-01 Dt=  5.00000E-02 [y] conv_reason: 3
  newton =   4 [      50] linear =     4 [        50] cuts =  0 [   0]
  --> SNES Linear/Non-Linear Iterations = 4 / 4
  --> SNES Residual: 0.174365E-16 0.174365E-18 0.115988E-16
  --> max change: dpmx=   3.7180E+03

== RICHARDS FLOW ===============================================================
  0 2r: 3.16E-08 2x: 0.00E+00 2u: 0.00E+00 ir: 7.83E-09 iu: 0.00E+00 rsn:   0
  1 2r: 2.35E-09 2x: 7.12E+05 2u: 1.31E+04 ir: 7.86E-10 iu: 3.26E+03 rsn:   0
  2 2r: 1.64E-11 2x: 7.12E+05 2u: 6.45E+02 ir: 6.79E-12 iu: 1.99E+02 rsn:   0
  3 2r: 8.15E-16 2x: 7.12E+05 2u: 2.69E+00 ir: 3.88E-16 iu: 1.02E+00 rsn:   0
  4 2r: 2.35E-17 2x: 7.12E+05 2u: 6.78E-05 ir: 1.27E-17 iu: 3.12E-05 rsn: rtol

 Step     15 Time=  3.00000E-01 Dt=  5.00000E-02 [y] conv_reason: 3
  newton =   4 [      54] linear =     4 [        54] cuts =  0 [   0]
  --> SNES Linear/Non-Linear Iterations = 4 / 4
  --> SNES Residual: 0.234765E-16 0.234765E-18 0.127212E-16
  --> max change: dpmx=   3.0577E+03

== RICHARDS FLOW ===============================================================
  0 2r: 2.93E-08 2x: 0.00E+00 2u: 0.00E+00 ir: 6.84E-09 iu: 0.00E+00 rsn:   0
  1 2r: 1.75E-09 2x: 7.17E+05 2u: 1.14E+04 ir: 5.60E-10 iu: 2.71E+03 rsn:   0
  2 2r: 8.55E-12 2x: 7.16E+05 2u: 4.86E+02 ir: 3.38E-12 iu: 1.42E+02 rsn:   0
  3 2r: 2.21E-16 2x: 7.16E+05 2u: 1.46E+00 ir: 1.00E-16 iu: 5.32E-01 rsn: rtol

 Step     16 Time=  3.50000E-01 Dt=  5.00000E-02 [y] conv_reason: 3
  newton =   3 [      57] linear =     3 [        57] cuts =  0 [   0]
  --> SNES Linear/Non-Linear Iterations = 3 / 3
  --> SNES Residual: 0.221017E-15 0.221017E-17 0.100124E-15
  --> max change: dpmx=   2.5659E+03

== RICHARDS FLOW ===============================================================
  0 2r: 2.74E-08 2x: 0.00E+00 2u: 0.00E+00 ir: 6.08E-09 iu: 0.00E+00 rsn:   0
  1 2r: 1.36E-09 2x: 7.21E+05 2u: 1.00E+04 ir: 4.15E-10 iu: 2.28E+03 rsn:   0
  2 2r: 4.79E-12 2x: 7.21E+05 2u: 3.73E+02 ir: 1.82E-12 iu: 1.05E+02 rsn:   0
  3 2r: 6.97E-17 2x: 7.21E+05 2u: 8.33E-01 ir: 2.97E-17 iu: 2.92E-01 rsn: rtol

 Step     17 Time=  4.00000E-01 Dt=  5.00000E-02 [y] conv_reason: 3
  newton =   3 [      60] linear =     3 [        60] cuts =  0 [   0]
  --> SNES Linear/Non-Linear Iterations = 3 / 3
  --> SNES Residual: 0.697096E-16 0.697096E-18 0.296753E-16
  --> max change: dpmx=   2.1772E+03

== RICHARDS FLOW ===============================================================
  0 2r: 2.56E-08 2x: 0.00E+00 2u: 0.00E+00 ir: 5.44E-09 iu: 0.00E+00 rsn:   0
  1 2r: 1.07E-09 2x: 7.24E+05 2u: 8.81E+03 ir: 3.16E-10 iu: 1.94E+03 rsn:   0
  2 2r: 2.81E-12 2x: 7.24E+05 2u: 2.89E+02 ir: 1.03E-12 iu: 7.86E+01 rsn:   0
  3 2r: 3.17E-17 2x: 7.24E+05 2u: 4.90E-01 ir: 1.10E-17 iu: 1.66E-01 rsn: rtol

 Step     18 Time=  4.50000E-01 Dt=  5.00000E-02 [y] conv_reason: 3
  newton =   3 [      63] linear =     3 [        63] cuts =  0 [   0]
  --> SNES Linear/Non-Linear Iterations = 3 / 3
  --> SNES Residual: 0.316921E-16 0.316921E-18 0.110343E-16
  --> max change: dpmx=   1.8586E+03

== RICHARDS FLOW ===============================================================
  0 2r: 2.39E-08 2x: 0.00E+00 2u: 0.00E+00 ir: 4.90E-09 iu: 0.00E+00 rsn:   0
  1 2r: 8.61E-10 2x: 7.28E+05 2u: 7.74E+03 ir: 2.44E-10 iu: 1.65E+03 rsn:   0
  2 2r: 1.69E-12 2x: 7.28E+05 2u: 2.25E+02 ir: 5.99E-13 iu: 5.93E+01 rsn:   0
  3 2r: 2.51E-17 2x: 7.28E+05 2u: 2.93E-01 ir: 1.21E-17 iu: 9.60E-02 rsn: rtol

 Step     19 Time=  5.00000E-01 Dt=  5.00000E-02 [y] conv_reason: 3
  newton =   3 [      66] linear =     3 [        66] cuts =  0 [   0]
  --> SNES Linear/Non-Linear Iterations = 3 / 3
  --> SNES Residual: 0.250927E-16 0.250927E-18 0.120897E-16
  --> max change: dpmx=   1.5928E+03

== RICHARDS FLOW ===============================================================
  0 2r: 2.22E-08 2x: 0.00E+00 2u: 0.00E+00 ir: 4.42E-09 iu: 0.00E+00 rsn:   0
  1 2r: 6.94E-10 2x: 7.31E+05 2u: 6.77E+03 ir: 1.90E-10 iu: 1.41E+03 rsn:   0
  2 2r: 1.03E-12 2x: 7.31E+05 2u: 1.75E+02 ir: 3.54E-13 iu: 4.49E+01 rsn:   0
  3 2r: 2.09E-17 2x: 7.31E+05 2u: 1.76E-01 ir: 1.08E-17 iu: 5.61E-02 rsn: rtol

 Step     20 Time=  5.50000E-01 Dt=  5.00000E-02 [y] conv_reason: 3
  newton =   3 [      69] linear =     3 [        69] cuts =  0 [   0]
  --> SNES Linear/Non-Linear Iterations = 3 / 3
  --> SNES Residual: 0.208780E-16 0.208780E-18 0.108288E-16
  --> max change: dpmx=   1.3657E+03

== RICHARDS FLOW ===============================================================
  0 2r: 2.06E-08 2x: 0.00E+00 2u: 0.00E+00 ir: 3.99E-09 iu: 0.00E+00 rsn:   0
  1 2r: 5.58E-10 2x: 7.34E+05 2u: 5.90E+03 ir: 1.48E-10 iu: 1.20E+03 rsn:   0
  2 2r: 6.30E-13 2x: 7.34E+05 2u: 1.36E+02 ir: 2.09E-13 iu: 3.38E+01 rsn:   0
  3 2r: 2.20E-17 2x: 7.34E+05 2u: 1.05E-01 ir: 1.31E-17 iu: 3.27E-02 rsn: rtol

 Step     21 Time=  6.00000E-01 Dt=  5.00000E-02 [y] conv_reason: 3
  newton =   3 [      72] linear =     3 [        72] cuts =  0 [   0]
  --> SNES Linear/Non-Linear Iterations = 3 / 3
  --> SNES Residual: 0.219646E-16 0.219646E-18 0.130692E-16
  --> max change: dpmx=   1.1688E+03

== RICHARDS FLOW ===============================================================
  0 2r: 1.89E-08 2x: 0.00E+00 2u: 0.00E+00 ir: 3.58E-09 iu: 0.00E+00 rsn:   0
  1 2r: 4.46E-10 2x: 7.37E+05 2u: 5.11E+03 ir: 1.15E-10 iu: 1.02E+03 rsn:   0
  2 2r: 3.82E-13 2x: 7.37E+05 2u: 1.04E+02 ir: 1.23E-13 iu: 2.54E+01 rsn:   0
  3 2r: 3.46E-17 2x: 7.37E+05 2u: 6.15E-02 ir: 1.61E-17 iu: 1.88E-02 rsn: rtol

 Step     22 Time=  6.50000E-01 Dt=  5.00000E-02 [y] conv_reason: 3
  newton =   3 [      75] linear =     3 [        75] cuts =  0 [   0]
  --> SNES Linear/Non-Linear Iterations = 3 / 3
  --> SNES Residual: 0.346270E-16 0.346270E-18 0.161269E-16
  --> max change: dpmx=   9.9797E+02

== RICHARDS FLOW ===============================================================
  0 2r: 1.71E-08 2x: 0.00E+00 2u: 0.00E+00 ir: 3.20E-09 iu: 0.00E+00 rsn:   0
  1 2r: 3.53E-10 2x: 7.39E+05 2u: 4.40E+03 ir: 8.87E-11 iu: 8.68E+02 rsn:   0
  2 2r: 2.27E-13 2x: 7.39E+05 2u: 7.86E+01 ir: 7.14E-14 iu: 1.89E+01 rsn:   0
  3 2r: 3.09E-17 2x: 7.39E+05 2u: 3.55E-02 ir: 1.29E-17 iu: 1.06E-02 rsn: rtol

 Step     23 Time=  7.00000E-01 Dt=  5.00000E-02 [y] conv_reason: 3
  newton =   3 [      78] linear =     3 [        78] cuts =  0 [   0]
  --> SNES Linear/Non-Linear Iterations = 3 / 3
  --> SNES Residual: 0.308677E-16 0.308677E-18 0.129188E-16
  --> max change: dpmx=   8.4947E+02

== RICHARDS FLOW ===============================================================
  0 2r: 1.54E-08 2x: 0.00E+00 2u: 0.00E+00 ir: 2.84E-09 iu: 0.00E+00 rsn:   0
  1 2r: 2.75E-10 2x: 7.41E+05 2u: 3.77E+03 ir: 6.78E-11 iu: 7.34E+02 rsn:   0
  2 2r: 1.33E-13 2x: 7.41E+05 2u: 5.88E+01 ir: 4.08E-14 iu: 1.40E+01 rsn:   0
  3 2r: 1.92E-17 2x: 7.41E+05 2u: 2.00E-02 ir: 9.49E-18 iu: 5.89E-03 rsn: rtol

 Step     24 Time=  7.50000E-01 Dt=  5.00000E-02 [y] conv_reason: 3
  newton =   3 [      81] linear =     3 [        81] cuts =  0 [   0]
  --> SNES Linear/Non-Linear Iterations = 3 / 3
  --> SNES Residual: 0.192131E-16 0.192131E-18 0.948613E-17
  --> max change: dpmx=   7.2012E+02

== RICHARDS FLOW ===============================================================
  0 2r: 1.37E-08 2x: 0.00E+00 2u: 0.00E+00 ir: 2.50E-09 iu: 0.00E+00 rsn:   0
  1 2r: 2.11E-10 2x: 7.43E+05 2u: 3.21E+03 ir: 5.11E-11 iu: 6.18E+02 rsn:   0
  2 2r: 7.54E-14 2x: 7.43E+05 2u: 4.34E+01 ir: 2.27E-14 iu: 1.02E+01 rsn:   0
  3 2r: 1.65E-17 2x: 7.43E+05 2u: 1.10E-02 ir: 7.83E-18 iu: 3.19E-03 rsn: rtol

 Step     25 Time=  8.00000E-01 Dt=  5.00000E-02 [y] conv_reason: 3
  newton =   3 [      84] linear =     3 [        84] cuts =  0 [   0]
  --> SNES Linear/Non-Linear Iterations = 3 / 3
  --> SNES Residual: 0.164643E-16 0.164643E-18 0.782648E-17
  --> max change: dpmx=   6.0815E+02

== RICHARDS FLOW ===============================================================
  0 2r: 1.20E-08 2x: 0.00E+00 2u: 0.00E+00 ir: 2.18E-09 iu: 0.00E+00 rsn:   0
  1 2r: 1.60E-10 2x: 7.44E+05 2u: 2.72E+03 ir: 3.80E-11 iu: 5.19E+02 rsn:   0
  2 2r: 4.17E-14 2x: 7.44E+05 2u: 3.17E+01 ir: 1.23E-14 iu: 7.35E+00 rsn:   0
  3 2r: 1.90E-17 2x: 7.44E+05 2u: 5.89E-03 ir: 9.23E-18 iu: 1.70E-03 rsn: rtol

 Step     26 Time=  8.50000E-01 Dt=  5.00000E-02 [y] conv_reason: 3
  newton =   3 [      87] linear =     3 [        87] cuts =  0 [   0]
  --> SNES Linear/Non-Linear Iterations = 3 / 3
  --> SNES Residual: 0.190494E-16 0.190494E-18 0.923425E-17
  --> max change: dpmx=   5.1190E+02

== RICHARDS FLOW ===============================================================
  0 2r: 1.05E-08 2x: 0.00E+00 2u: 0.00E+00 ir: 1.89E-09 iu: 0.00E+00 rsn:   0
  1 2r: 1.19E-10 2x: 7.46E+05 2u: 2.29E+03 ir: 2.79E-11 iu: 4.34E+02 rsn:   0
  2 2r: 2.25E-14 2x: 7.46E+05 2u: 2.29E+01 ir: 6.57E-15 iu: 5.26E+00 rsn:   0
  3 2r: 2.47E-17 2x: 7.46E+05 2u: 3.09E-03 ir: 1.10E-17 iu: 8.83E-04 rsn: rtol

 Step     27 Time=  9.00000E-01 Dt=  5.00000E-02 [y] conv_reason: 3
  newton =   3 [      90] linear =     3 [        90] cuts =  0 [   0]
  --> SNES Linear/Non-Linear Iterations = 3 / 3
  --> SNES Residual: 0.247011E-16 0.247011E-18 0.110488E-16
  --> max change: dpmx=   4.2913E+02

== RICHARDS FLOW ===============================================================
  0 2r: 9.06E-09 2x: 0.00E+00 2u: 0.00E+00 ir: 1.62E-09 iu: 0.00E+00 rsn:   0
  1 2r: 8.75E-11 2x: 7.47E+05 2u: 1.93E+03 ir: 2.03E-11 iu: 3.63E+02 rsn:   0
  2 2r: 1.19E-14 2x: 7.47E+05 2u: 1.63E+01 ir: 3.42E-15 iu: 3.74E+00 rsn:   0
  3 2r: 2.05E-17 2x: 7.47E+05 2u: 1.59E-03 ir: 9.82E-18 iu: 4.50E-04 rsn: rtol

 Step     28 Time=  9.50000E-01 Dt=  5.00000E-02 [y] conv_reason: 3
  newton =   3 [      93] linear =     3 [        93] cuts =  0 [   0]
  --> SNES Linear/Non-Linear Iterations = 3 / 3
  --> SNES Residual: 0.205421E-16 0.205421E-18 0.981881E-17
  --> max change: dpmx=   3.5899E+02

== RICHARDS FLOW ===============================================================
  0 2r: 7.77E-09 2x: 0.00E+00 2u: 0.00E+00 ir: 1.38E-09 iu: 0.00E+00 rsn:   0
  1 2r: 6.35E-11 2x: 7.48E+05 2u: 1.61E+03 ir: 1.46E-11 iu: 3.02E+02 rsn:   0
  2 2r: 6.12E-15 2x: 7.48E+05 2u: 1.16E+01 ir: 1.74E-15 iu: 2.63E+00 rsn:   0
  3 2r: 2.38E-17 2x: 7.48E+05 2u: 8.04E-04 ir: 9.89E-18 iu: 2.26E-04 rsn: rtol

 Step     29 Time=  1.00000E+00 Dt=  5.00000E-02 [y] conv_reason: 3
  newton =   3 [      96] linear =     3 [        96] cuts =  0 [   0]
  --> SNES Linear/Non-Linear Iterations = 3 / 3
  --> SNES Residual: 0.238450E-16 0.238450E-18 0.989165E-17
  --> max change: dpmx=   2.9941E+02

 --> write tecplot output file: 1D_vsat_flow-003.tec
      0.00 Seconds to write to Tecplot file(s)

== RICHARDS FLOW ===============================================================
  0 2r: 6.62E-09 2x: 0.00E+00 2u: 0.00E+00 ir: 1.18E-09 iu: 0.00E+00 rsn:   0
  1 2r: 4.56E-11 2x: 7.49E+05 2u: 1.35E+03 ir: 1.04E-11 iu: 2.51E+02 rsn:   0
  2 2r: 3.10E-15 2x: 7.49E+05 2u: 8.16E+00 ir: 8.74E-16 iu: 1.84E+00 rsn:   0
  3 2r: 2.21E-17 2x: 7.49E+05 2u: 4.00E-04 ir: 1.21E-17 iu: 1.12E-04 rsn: rtol

 Step     30 Time=  1.05000E+00 Dt=  5.00000E-02 [y] conv_reason: 3
  newton =   3 [      99] linear =     3 [        99] cuts =  0 [   0]
  --> SNES Linear/Non-Linear Iterations = 3 / 3
  --> SNES Residual: 0.221054E-16 0.221054E-18 0.121007E-16
  --> max change: dpmx=   2.4923E+02

== RICHARDS FLOW ===============================================================
  0 2r: 5.61E-09 2x: 0.00E+00 2u: 0.00E+00 ir: 9.94E-10 iu: 0.00E+00 rsn:   0
  1 2r: 3.25E-11 2x: 7.49E+05 2u: 1.12E+03 ir: 7.32E-12 iu: 2.09E+02 rsn:   0
  2 2r: 1.55E-15 2x: 7.49E+05 2u: 5.72E+00 ir: 4.33E-16 iu: 1.29E+00 rsn:   0
  3 2r: 1.98E-17 2x: 7.49E+05 2u: 1.97E-04 ir: 1.14E-17 iu: 5.47E-05 rsn: rtol

 Step     31 Time=  1.10000E+00 Dt=  5.00000E-02 [y] conv_reason: 3
  newton =   3 [     102] linear =     3 [       102] cuts =  0 [   0]
  --> SNES Linear/Non-Linear Iterations = 3 / 3
  --> SNES Residual: 0.198375E-16 0.198375E-18 0.113855E-16
  --> max change: dpmx=   2.0722E+02

== RICHARDS FLOW ===============================================================
  0 2r: 4.73E-09 2x: 0.00E+00 2u: 0.00E+00 ir: 8.36E-10 iu: 0.00E+00 rsn:   0
  1 2r: 2.29E-11 2x: 7.50E+05 2u: 9.35E+02 ir: 5.14E-12 iu: 1.73E+02 rsn:   0
  2 2r: 7.62E-16 2x: 7.50E+05 2u: 3.98E+00 ir: 2.11E-16 iu: 8.92E-01 rsn:   0
  3 2r: 2.18E-17 2x: 7.50E+05 2u: 9.58E-05 ir: 9.91E-18 iu: 2.65E-05 rsn: rtol

 Step     32 Time=  1.15000E+00 Dt=  5.00000E-02 [y] conv_reason: 3
  newton =   3 [     105] linear =     3 [       105] cuts =  0 [   0]
  --> SNES Linear/Non-Linear Iterations = 3 / 3
  --> SNES Residual: 0.217964E-16 0.217964E-18 0.991050E-17
  --> max change: dpmx=   1.7205E+02

== RICHARDS FLOW ===============================================================
  0 2r: 3.98E-09 2x: 0.00E+00 2u: 0.00E+00 ir: 7.02E-10 iu: 0.00E+00 rsn:   0
  1 2r: 1.61E-11 2x: 7.50E+05 2u: 7.77E+02 ir: 3.59E-12 iu: 1.43E+02 rsn:   0
  2 2r: 3.72E-16 2x: 7.50E+05 2u: 2.77E+00 ir: 1.02E-16 iu: 6.18E-01 rsn:   0
  3 2r: 2.92E-17 2x: 7.50E+05 2u: 4.63E-05 ir: 1.44E-17 iu: 1.28E-05 rsn: rtol

 Step     33 Time=  1.20000E+00 Dt=  5.00000E-02 [y] conv_reason: 3
  newton =   3 [     108] linear =     3 [       108] cuts =  0 [   0]
  --> SNES Linear/Non-Linear Iterations = 3 / 3
  --> SNES Residual: 0.291870E-16 0.291870E-18 0.144191E-16
  --> max change: dpmx=   1.4271E+02

== RICHARDS FLOW ===============================================================
  0 2r: 3.34E-09 2x: 0.00E+00 2u: 0.00E+00 ir: 5.87E-10 iu: 0.00E+00 rsn:   0
  1 2r: 1.12E-11 2x: 7.51E+05 2u: 6.45E+02 ir: 2.49E-12 iu: 1.19E+02 rsn:   0
  2 2r: 1.80E-16 2x: 7.51E+05 2u: 1.91E+00 ir: 4.91E-17 iu: 4.26E-01 rsn:   0
  3 2r: 2.23E-17 2x: 7.51E+05 2u: 2.22E-05 ir: 1.04E-17 iu: 6.11E-06 rsn: rtol

 Step     34 Time=  1.25000E+00 Dt=  5.00000E-02 [y] conv_reason: 3
  newton =   3 [     111] linear =     3 [       111] cuts =  0 [   0]
  --> SNES Linear/Non-Linear Iterations = 3 / 3
  --> SNES Residual: 0.223490E-16 0.223490E-18 0.103757E-16
  --> max change: dpmx=   1.1828E+02

== RICHARDS FLOW ===============================================================
  0 2r: 2.79E-09 2x: 0.00E+00 2u: 0.00E+00 ir: 4.90E-10 iu: 0.00E+00 rsn:   0
  1 2r: 7.82E-12 2x: 7.51E+05 2u: 5.36E+02 ir: 1.73E-12 iu: 9.83E+01 rsn:   0
  2 2r: 8.92E-17 2x: 7.51E+05 2u: 1.32E+00 ir: 2.35E-17 iu: 2.94E-01 rsn:   0
  3 2r: 1.90E-17 2x: 7.51E+05 2u: 1.06E-05 ir: 1.09E-17 iu: 2.91E-06 rsn: rtol

 Step     35 Time=  1.30000E+00 Dt=  5.00000E-02 [y] conv_reason: 3
  newton =   3 [     114] linear =     3 [       114] cuts =  0 [   0]
  --> SNES Linear/Non-Linear Iterations = 3 / 3
  --> SNES Residual: 0.189833E-16 0.189833E-18 0.108970E-16
  --> max change: dpmx=   9.7982E+01

== RICHARDS FLOW ===============================================================
  0 2r: 2.33E-09 2x: 0.00E+00 2u: 0.00E+00 ir: 4.08E-10 iu: 0.00E+00 rsn:   0
  1 2r: 5.42E-12 2x: 7.51E+05 2u: 4.44E+02 ir: 1.19E-12 iu: 8.13E+01 rsn:   0
  2 2r: 4.72E-17 2x: 7.51E+05 2u: 9.11E-01 ir: 1.12E-17 iu: 2.02E-01 rsn:   0
  3 2r: 1.73E-17 2x: 7.51E+05 2u: 5.04E-06 ir: 7.99E-18 iu: 1.38E-06 rsn: rtol

 Step     36 Time=  1.35000E+00 Dt=  5.00000E-02 [y] conv_reason: 3
  newton =   3 [     117] linear =     3 [       117] cuts =  0 [   0]
  --> SNES Linear/Non-Linear Iterations = 3 / 3
  --> SNES Residual: 0.173081E-16 0.173081E-18 0.799038E-17
  --> max change: dpmx=   8.1138E+01

== RICHARDS FLOW ===============================================================
  0 2r: 1.94E-09 2x: 0.00E+00 2u: 0.00E+00 ir: 3.39E-10 iu: 0.00E+00 rsn:   0
  1 2r: 3.75E-12 2x: 7.51E+05 2u: 3.68E+02 ir: 8.23E-13 iu: 6.73E+01 rsn:   0
  2 2r: 3.00E-17 2x: 7.51E+05 2u: 6.27E-01 ir: 1.26E-17 iu: 1.39E-01 rsn:   0
  3 2r: 2.52E-17 2x: 7.51E+05 2u: 2.39E-06 ir: 1.26E-17 iu: 6.52E-07 rsn: stol

 Step     37 Time=  1.40000E+00 Dt=  5.00000E-02 [y] conv_reason: 4
  newton =   3 [     120] linear =     3 [       120] cuts =  0 [   0]
  --> SNES Linear/Non-Linear Iterations = 3 / 3
  --> SNES Residual: 0.251931E-16 0.251931E-18 0.125549E-16
  --> max change: dpmx=   6.7173E+01

== RICHARDS FLOW ===============================================================
  0 2r: 1.61E-09 2x: 0.00E+00 2u: 0.00E+00 ir: 2.82E-10 iu: 0.00E+00 rsn:   0
  1 2r: 2.59E-12 2x: 7.52E+05 2u: 3.05E+02 ir: 5.66E-13 iu: 5.57E+01 rsn:   0
  2 2r: 1.84E-17 2x: 7.52E+05 2u: 4.31E-01 ir: 8.15E-18 iu: 9.52E-02 rsn:   0
  3 2r: 2.62E-17 2x: 7.52E+05 2u: 1.13E-06 ir: 1.30E-17 iu: 3.08E-07 rsn: stol

 Step     38 Time=  1.45000E+00 Dt=  5.00000E-02 [y] conv_reason: 4
  newton =   3 [     123] linear =     3 [       123] cuts =  0 [   0]
  --> SNES Linear/Non-Linear Iterations = 3 / 3
  --> SNES Residual: 0.262090E-16 0.262090E-18 0.130035E-16
  --> max change: dpmx=   5.5603E+01

== RICHARDS FLOW ===============================================================
  0 2r: 1.34E-09 2x: 0.00E+00 2u: 0.00E+00 ir: 2.34E-10 iu: 0.00E+00 rsn:   0
  1 2r: 1.78E-12 2x: 7.52E+05 2u: 2.53E+02 ir: 3.89E-13 iu: 4.61E+01 rsn:   0
  2 2r: 2.63E-17 2x: 7.52E+05 2u: 2.96E-01 ir: 1.67E-17 iu: 6.53E-02 rsn:   0
  3 2r: 2.45E-17 2x: 7.52E+05 2u: 5.33E-07 ir: 1.06E-17 iu: 1.45E-07 rsn: stol

 Step     39 Time=  1.50000E+00 Dt=  5.00000E-02 [y] conv_reason: 4
  newton =   3 [     126] linear =     3 [       126] cuts =  0 [   0]
  --> SNES Linear/Non-Linear Iterations = 3 / 3
  --> SNES Residual: 0.245031E-16 0.245031E-18 0.105648E-16
  --> max change: dpmx=   4.6021E+01

== RICHARDS FLOW ===============================================================
  0 2r: 1.11E-09 2x: 0.00E+00 2u: 0.00E+00 ir: 1.94E-10 iu: 0.00E+00 rsn:   0
  1 2r: 1.23E-12 2x: 7.52E+05 2u: 2.09E+02 ir: 2.68E-13 iu: 3.81E+01 rsn:   0
  2 2r: 2.31E-17 2x: 7.52E+05 2u: 2.04E-01 ir: 1.13E-17 iu: 4.48E-02 rsn:   0
  3 2r: 1.81E-17 2x: 7.52E+05 2u: 2.51E-07 ir: 8.04E-18 iu: 6.83E-08 rsn: stol

 Step     40 Time=  1.55000E+00 Dt=  5.00000E-02 [y] conv_reason: 4
  newton =   3 [     129] linear =     3 [       129] cuts =  0 [   0]
  --> SNES Linear/Non-Linear Iterations = 3 / 3
  --> SNES Residual: 0.180643E-16 0.180643E-18 0.803612E-17
  --> max change: dpmx=   3.8088E+01

== RICHARDS FLOW ===============================================================
  0 2r: 9.24E-10 2x: 0.00E+00 2u: 0.00E+00 ir: 1.61E-10 iu: 0.00E+00 rsn:   0
  1 2r: 8.44E-13 2x: 7.52E+05 2u: 1.73E+02 ir: 1.84E-13 iu: 3.16E+01 rsn:   0
  2 2r: 1.40E-17 2x: 7.52E+05 2u: 1.40E-01 ir: 9.33E-18 iu: 3.07E-02 rsn:   0
  3 2r: 1.43E-17 2x: 7.52E+05 2u: 1.18E-07 ir: 9.33E-18 iu: 3.22E-08 rsn: stol

 Step     41 Time=  1.60000E+00 Dt=  5.00000E-02 [y] conv_reason: 4
  newton =   3 [     132] linear =     3 [       132] cuts =  0 [   0]
  --> SNES Linear/Non-Linear Iterations = 3 / 3
  --> SNES Residual: 0.142879E-16 0.142879E-18 0.932721E-17
  --> max change: dpmx=   3.1522E+01

== RICHARDS FLOW ===============================================================
  0 2r: 7.66E-10 2x: 0.00E+00 2u: 0.00E+00 ir: 1.34E-10 iu: 0.00E+00 rsn:   0
  1 2r: 5.80E-13 2x: 7.52E+05 2u: 1.44E+02 ir: 1.26E-13 iu: 2.61E+01 rsn:   0
  2 2r: 1.63E-17 2x: 7.52E+05 2u: 9.58E-02 ir: 7.84E-18 iu: 2.11E-02 rsn:   0
  3 2r: 1.62E-17 2x: 7.52E+05 2u: 5.57E-08 ir: 7.84E-18 iu: 1.51E-08 rsn: stol

 Step     42 Time=  1.65000E+00 Dt=  5.00000E-02 [y] conv_reason: 4
  newton =   3 [     135] linear =     3 [       135] cuts =  0 [   0]
  --> SNES Linear/Non-Linear Iterations = 3 / 3
  --> SNES Residual: 0.161675E-16 0.161675E-18 0.784024E-17
  --> max change: dpmx=   2.6088E+01

== RICHARDS FLOW ===============================================================
  0 2r: 6.35E-10 2x: 0.00E+00 2u: 0.00E+00 ir: 1.11E-10 iu: 0.00E+00 rsn:   0
  1 2r: 3.98E-13 2x: 7.52E+05 2u: 1.19E+02 ir: 8.65E-14 iu: 2.16E+01 rsn:   0
  2 2r: 2.52E-17 2x: 7.52E+05 2u: 6.57E-02 ir: 1.36E-17 iu: 1.44E-02 rsn:   0
  3 2r: 2.42E-17 2x: 7.52E+05 2u: 2.62E-08 ir: 1.36E-17 iu: 7.11E-09 rsn: stol

 Step     43 Time=  1.70000E+00 Dt=  5.00000E-02 [y] conv_reason: 4
  newton =   3 [     138] linear =     3 [       138] cuts =  0 [   0]
  --> SNES Linear/Non-Linear Iterations = 3 / 3
  --> SNES Residual: 0.242223E-16 0.242223E-18 0.136296E-16
  --> max change: dpmx=   2.1591E+01

== RICHARDS FLOW ===============================================================
  0 2r: 5.27E-10 2x: 0.00E+00 2u: 0.00E+00 ir: 9.18E-11 iu: 0.00E+00 rsn:   0
  1 2r: 2.73E-13 2x: 7.52E+05 2u: 9.84E+01 ir: 5.93E-14 iu: 1.79E+01 rsn:   0
  2 2r: 2.28E-17 2x: 7.52E+05 2u: 4.51E-02 ir: 1.14E-17 iu: 9.89E-03 rsn:   0
  3 2r: 2.28E-17 2x: 7.52E+05 2u: 1.23E-08 ir: 1.14E-17 iu: 3.34E-09 rsn: stol

 Step     44 Time=  1.75000E+00 Dt=  5.00000E-02 [y] conv_reason: 4
  newton =   3 [     141] linear =     3 [       141] cuts =  0 [   0]
  --> SNES Linear/Non-Linear Iterations = 3 / 3
  --> SNES Residual: 0.227666E-16 0.227666E-18 0.113681E-16
  --> max change: dpmx=   1.7870E+01

== RICHARDS FLOW ===============================================================
  0 2r: 4.36E-10 2x: 0.00E+00 2u: 0.00E+00 ir: 7.60E-11 iu: 0.00E+00 rsn:   0
  1 2r: 1.88E-13 2x: 7.52E+05 2u: 8.15E+01 ir: 4.07E-14 iu: 1.48E+01 rsn:   0
  2 2r: 2.19E-17 2x: 7.52E+05 2u: 3.09E-02 ir: 1.02E-17 iu: 6.78E-03 rsn:   0
  3 2r: 2.17E-17 2x: 7.52E+05 2u: 5.79E-09 ir: 1.02E-17 iu: 1.57E-09 rsn: stol

 Step     45 Time=  1.80000E+00 Dt=  5.00000E-02 [y] conv_reason: 4
  newton =   3 [     144] linear =     3 [       144] cuts =  0 [   0]
  --> SNES Linear/Non-Linear Iterations = 3 / 3
  --> SNES Residual: 0.216591E-16 0.216591E-18 0.101912E-16
  --> max change: dpmx=   1.4790E+01

== RICHARDS FLOW ===============================================================
  0 2r: 3.62E-10 2x: 0.00E+00 2u: 0.00E+00 ir: 6.30E-11 iu: 0.00E+00 rsn:   0
  1 2r: 1.29E-13 2x: 7.52E+05 2u: 6.75E+01 ir: 2.79E-14 iu: 1.22E+01 rsn:   0
  2 2r: 1.86E-17 2x: 7.52E+05 2u: 2.12E-02 ir: 1.12E-17 iu: 4.65E-03 rsn:   0
  3 2r: 1.87E-17 2x: 7.52E+05 2u: 2.73E-09 ir: 1.12E-17 iu: 7.45E-10 rsn: stol

 Step     46 Time=  1.85000E+00 Dt=  5.00000E-02 [y] conv_reason: 4
  newton =   3 [     147] linear =     3 [       147] cuts =  0 [   0]
  --> SNES Linear/Non-Linear Iterations = 3 / 3
  --> SNES Residual: 0.186626E-16 0.186626E-18 0.112488E-16
  --> max change: dpmx=   1.2242E+01

== RICHARDS FLOW ===============================================================
  0 2r: 3.00E-10 2x: 0.00E+00 2u: 0.00E+00 ir: 5.22E-11 iu: 0.00E+00 rsn:   0
  1 2r: 8.83E-14 2x: 7.52E+05 2u: 5.58E+01 ir: 1.91E-14 iu: 1.01E+01 rsn:   0
  2 2r: 1.78E-17 2x: 7.52E+05 2u: 1.45E-02 ir: 1.14E-17 iu: 3.18E-03 rsn:   0
  3 2r: 2.54E-17 2x: 7.52E+05 2u: 1.28E-09 ir: 1.36E-17 iu: 3.50E-10 rsn: stol

 Step     47 Time=  1.90000E+00 Dt=  5.00000E-02 [y] conv_reason: 4
  newton =   3 [     150] linear =     3 [       150] cuts =  0 [   0]
  --> SNES Linear/Non-Linear Iterations = 3 / 3
  --> SNES Residual: 0.253971E-16 0.253971E-18 0.136494E-16
  --> max change: dpmx=   1.0132E+01

== RICHARDS FLOW ===============================================================
  0 2r: 2.48E-10 2x: 0.00E+00 2u: 0.00E+00 ir: 4.32E-11 iu: 0.00E+00 rsn:   0
  1 2r: 6.05E-14 2x: 7.52E+05 2u: 4.62E+01 ir: 1.31E-14 iu: 8.39E+00 rsn:   0
  2 2r: 2.23E-17 2x: 7.52E+05 2u: 9.96E-03 ir: 1.25E-17 iu: 2.18E-03 rsn:   0
  3 2r: 2.23E-17 2x: 7.52E+05 2u: 6.15E-10 ir: 1.25E-17 iu: 1.63E-10 rsn: stol

 Step     48 Time=  1.95000E+00 Dt=  5.00000E-02 [y] conv_reason: 4
  newton =   3 [     153] linear =     3 [       153] cuts =  0 [   0]
  --> SNES Linear/Non-Linear Iterations = 3 / 3
  --> SNES Residual: 0.222934E-16 0.222934E-18 0.125055E-16
  --> max change: dpmx=   8.3870E+00

== RICHARDS FLOW ===============================================================
  0 2r: 2.05E-10 2x: 0.00E+00 2u: 0.00E+00 ir: 3.58E-11 iu: 0.00E+00 rsn:   0
  1 2r: 4.15E-14 2x: 7.52E+05 2u: 3.83E+01 ir: 8.99E-15 iu: 6.94E+00 rsn:   0
  2 2r: 1.45E-17 2x: 7.52E+05 2u: 6.83E-03 ir: 8.78E-18 iu: 1.50E-03 rsn: stol

 Step     49 Time=  2.00000E+00 Dt=  5.00000E-02 [y] conv_reason: 4
  newton =   2 [     155] linear =     2 [       155] cuts =  0 [   0]
  --> SNES Linear/Non-Linear Iterations = 2 / 2
  --> SNES Residual: 0.145246E-16 0.145246E-18 0.877685E-17
  --> max change: dpmx=   6.9424E+00

== RICHARDS FLOW ===============================================================
  0 2r: 1.70E-10 2x: 0.00E+00 2u: 0.00E+00 ir: 2.96E-11 iu: 0.00E+00 rsn:   0
  1 2r: 2.85E-14 2x: 7.52E+05 2u: 3.17E+01 ir: 6.16E-15 iu: 5.75E+00 rsn:   0
  2 2r: 1.27E-17 2x: 7.52E+05 2u: 4.68E-03 ir: 6.55E-18 iu: 1.02E-03 rsn: stol

 Step     50 Time=  2.05000E+00 Dt=  5.00000E-02 [y] conv_reason: 4
  newton =   2 [     157] linear =     2 [       157] cuts =  0 [   0]
  --> SNES Linear/Non-Linear Iterations = 2 / 2
  --> SNES Residual: 0.126673E-16 0.126673E-18 0.655191E-17
  --> max change: dpmx=   5.7468E+00

== RICHARDS FLOW ===============================================================
  0 2r: 1.41E-10 2x: 0.00E+00 2u: 0.00E+00 ir: 2.45E-11 iu: 0.00E+00 rsn:   0
  1 2r: 1.95E-14 2x: 7.52E+05 2u: 2.62E+01 ir: 4.22E-15 iu: 4.76E+00 rsn:   0
  2 2r: 1.04E-17 2x: 7.52E+05 2u: 3.21E-03 ir: 4.16E-18 iu: 7.02E-04 rsn: stol

 Step     51 Time=  2.10000E+00 Dt=  5.00000E-02 [y] conv_reason: 4
  newton =   2 [     159] linear =     2 [       159] cuts =  0 [   0]
  --> SNES Linear/Non-Linear Iterations = 2 / 2
  --> SNES Residual: 0.103635E-16 0.103635E-18 0.415618E-17
  --> max change: dpmx=   4.7571E+00

== RICHARDS FLOW ===============================================================
  0 2r: 1.17E-10 2x: 0.00E+00 2u: 0.00E+00 ir: 2.03E-11 iu: 0.00E+00 rsn:   0
  1 2r: 1.34E-14 2x: 7.52E+05 2u: 2.17E+01 ir: 2.89E-15 iu: 3.94E+00 rsn:   0
  2 2r: 2.40E-17 2x: 7.52E+05 2u: 2.20E-03 ir: 1.49E-17 iu: 4.81E-04 rsn: stol

 Step     52 Time=  2.15000E+00 Dt=  5.00000E-02 [y] conv_reason: 4
  newton =   2 [     161] linear =     2 [       161] cuts =  0 [   0]
  --> SNES Linear/Non-Linear Iterations = 2 / 2
  --> SNES Residual: 0.239561E-16 0.239561E-18 0.148800E-16
  --> max change: dpmx=   3.9380E+00

== RICHARDS FLOW ===============================================================
  0 2r: 9.66E-11 2x: 0.00E+00 2u: 0.00E+00 ir: 1.68E-11 iu: 0.00E+00 rsn:   0
  1 2r: 9.17E-15 2x: 7.52E+05 2u: 1.80E+01 ir: 1.98E-15 iu: 3.26E+00 rsn:   0
  2 2r: 2.68E-17 2x: 7.52E+05 2u: 1.51E-03 ir: 1.22E-17 iu: 3.30E-04 rsn: stol

 Step     53 Time=  2.20000E+00 Dt=  5.00000E-02 [y] conv_reason: 4
  newton =   2 [     163] linear =     2 [       163] cuts =  0 [   0]
  --> SNES Linear/Non-Linear Iterations = 2 / 2
  --> SNES Residual: 0.268170E-16 0.268170E-18 0.122210E-16
  --> max change: dpmx=   3.2600E+00

== RICHARDS FLOW ===============================================================
  0 2r: 8.00E-11 2x: 0.00E+00 2u: 0.00E+00 ir: 1.39E-11 iu: 0.00E+00 rsn:   0
  1 2r: 6.29E-15 2x: 7.52E+05 2u: 1.49E+01 ir: 1.36E-15 iu: 2.70E+00 rsn:   0
  2 2r: 2.38E-17 2x: 7.52E+05 2u: 1.03E-03 ir: 1.29E-17 iu: 2.26E-04 rsn: stol

 Step     54 Time=  2.25000E+00 Dt=  5.00000E-02 [y] conv_reason: 4
  newton =   2 [     165] linear =     2 [       165] cuts =  0 [   0]
  --> SNES Linear/Non-Linear Iterations = 2 / 2
  --> SNES Residual: 0.238428E-16 0.238428E-18 0.128824E-16
  --> max change: dpmx=   2.6988E+00

== RICHARDS FLOW ===============================================================
  0 2r: 6.63E-11 2x: 0.00E+00 2u: 0.00E+00 ir: 1.15E-11 iu: 0.00E+00 rsn:   0
  1 2r: 4.31E-15 2x: 7.52E+05 2u: 1.23E+01 ir: 9.32E-16 iu: 2.23E+00 rsn:   0
  2 2r: 2.45E-17 2x: 7.52E+05 2u: 7.08E-04 ir: 1.17E-17 iu: 1.55E-04 rsn: stol

 Step     55 Time=  2.30000E+00 Dt=  5.00000E-02 [y] conv_reason: 4
  newton =   2 [     167] linear =     2 [       167] cuts =  0 [   0]
  --> SNES Linear/Non-Linear Iterations = 2 / 2
  --> SNES Residual: 0.245438E-16 0.245438E-18 0.116965E-16
  --> max change: dpmx=   2.2342E+00

== RICHARDS FLOW ===============================================================
  0 2r: 5.49E-11 2x: 0.00E+00 2u: 0.00E+00 ir: 9.54E-12 iu: 0.00E+00 rsn:   0
  1 2r: 2.95E-15 2x: 7.52E+05 2u: 1.02E+01 ir: 6.39E-16 iu: 1.85E+00 rsn:   0
  2 2r: 1.90E-17 2x: 7.52E+05 2u: 4.85E-04 ir: 1.17E-17 iu: 1.06E-04 rsn: stol

 Step     56 Time=  2.35000E+00 Dt=  5.00000E-02 [y] conv_reason: 4
  newton =   2 [     169] linear =     2 [       169] cuts =  0 [   0]
  --> SNES Linear/Non-Linear Iterations = 2 / 2
  --> SNES Residual: 0.189924E-16 0.189924E-18 0.116835E-16
  --> max change: dpmx=   1.8496E+00

== RICHARDS FLOW ===============================================================
  0 2r: 4.54E-11 2x: 0.00E+00 2u: 0.00E+00 ir: 7.90E-12 iu: 0.00E+00 rsn:   0
  1 2r: 2.02E-15 2x: 7.52E+05 2u: 8.45E+00 ir: 4.38E-16 iu: 1.53E+00 rsn:   0
  2 2r: 2.04E-17 2x: 7.52E+05 2u: 3.33E-04 ir: 1.01E-17 iu: 7.28E-05 rsn: stol

 Step     57 Time=  2.40000E+00 Dt=  5.00000E-02 [y] conv_reason: 4
  newton =   2 [     171] linear =     2 [       171] cuts =  0 [   0]
  --> SNES Linear/Non-Linear Iterations = 2 / 2
  --> SNES Residual: 0.204228E-16 0.204228E-18 0.100647E-16
  --> max change: dpmx=   1.5312E+00

== RICHARDS FLOW ===============================================================
  0 2r: 3.76E-11 2x: 0.00E+00 2u: 0.00E+00 ir: 6.54E-12 iu: 0.00E+00 rsn:   0
  1 2r: 1.39E-15 2x: 7.52E+05 2u: 6.99E+00 ir: 3.00E-16 iu: 1.27E+00 rsn:   0
  2 2r: 2.71E-17 2x: 7.52E+05 2u: 2.28E-04 ir: 1.72E-17 iu: 4.99E-05 rsn: stol

 Step     58 Time=  2.45000E+00 Dt=  5.00000E-02 [y] conv_reason: 4
  newton =   2 [     173] linear =     2 [       173] cuts =  0 [   0]
  --> SNES Linear/Non-Linear Iterations = 2 / 2
  --> SNES Residual: 0.270929E-16 0.270929E-18 0.172123E-16
  --> max change: dpmx=   1.2677E+00

== RICHARDS FLOW ===============================================================
  0 2r: 3.11E-11 2x: 0.00E+00 2u: 0.00E+00 ir: 5.42E-12 iu: 0.00E+00 rsn:   0
  1 2r: 9.52E-16 2x: 7.52E+05 2u: 5.79E+00 ir: 2.06E-16 iu: 1.05E+00 rsn:   0
  2 2r: 2.07E-17 2x: 7.52E+05 2u: 1.56E-04 ir: 1.09E-17 iu: 3.42E-05 rsn: stol

 Step     59 Time=  2.50000E+00 Dt=  5.00000E-02 [y] conv_reason: 4
  newton =   2 [     175] linear =     2 [       175] cuts =  0 [   0]
  --> SNES Linear/Non-Linear Iterations = 2 / 2
  --> SNES Residual: 0.206910E-16 0.206910E-18 0.108726E-16
  --> max change: dpmx=   1.0495E+00

== RICHARDS FLOW ===============================================================
  0 2r: 2.58E-11 2x: 0.00E+00 2u: 0.00E+00 ir: 4.48E-12 iu: 0.00E+00 rsn:   0
  1 2r: 6.53E-16 2x: 7.52E+05 2u: 4.79E+00 ir: 1.41E-16 iu: 8.69E-01 rsn:   0
  2 2r: 3.06E-17 2x: 7.52E+05 2u: 1.07E-04 ir: 1.68E-17 iu: 2.34E-05 rsn: stol

 Step     60 Time=  2.55000E+00 Dt=  5.00000E-02 [y] conv_reason: 4
  newton =   2 [     177] linear =     2 [       177] cuts =  0 [   0]
  --> SNES Linear/Non-Linear Iterations = 2 / 2
  --> SNES Residual: 0.306420E-16 0.306420E-18 0.168248E-16
  --> max change: dpmx=   8.6887E-01

== RICHARDS FLOW ===============================================================
  0 2r: 2.13E-11 2x: 0.00E+00 2u: 0.00E+00 ir: 3.71E-12 iu: 0.00E+00 rsn:   0
  1 2r: 4.48E-16 2x: 7.52E+05 2u: 3.97E+00 ir: 9.66E-17 iu: 7.19E-01 rsn:   0
  2 2r: 2.34E-17 2x: 7.52E+05 2u: 7.34E-05 ir: 1.35E-17 iu: 1.61E-05 rsn: stol

 Step     61 Time=  2.60000E+00 Dt=  5.00000E-02 [y] conv_reason: 4
  newton =   2 [     179] linear =     2 [       179] cuts =  0 [   0]
  --> SNES Linear/Non-Linear Iterations = 2 / 2
  --> SNES Residual: 0.233950E-16 0.233950E-18 0.134520E-16
  --> max change: dpmx=   7.1933E-01

== RICHARDS FLOW ===============================================================
  0 2r: 1.77E-11 2x: 0.00E+00 2u: 0.00E+00 ir: 3.07E-12 iu: 0.00E+00 rsn:   0
  1 2r: 3.07E-16 2x: 7.52E+05 2u: 3.29E+00 ir: 6.62E-17 iu: 5.96E-01 rsn:   0
  2 2r: 2.35E-17 2x: 7.52E+05 2u: 5.03E-05 ir: 1.23E-17 iu: 1.10E-05 rsn: stol

 Step     62 Time=  2.65000E+00 Dt=  5.00000E-02 [y] conv_reason: 4
  newton =   2 [     181] linear =     2 [       181] cuts =  0 [   0]
  --> SNES Linear/Non-Linear Iterations = 2 / 2
  --> SNES Residual: 0.234952E-16 0.234952E-18 0.123228E-16
  --> max change: dpmx=   5.9554E-01

== RICHARDS FLOW ===============================================================
  0 2r: 1.46E-11 2x: 0.00E+00 2u: 0.00E+00 ir: 2.54E-12 iu: 0.00E+00 rsn:   0
  1 2r: 2.12E-16 2x: 7.52E+05 2u: 2.72E+00 ir: 4.54E-17 iu: 4.93E-01 rsn:   0
  2 2r: 1.37E-17 2x: 7.52E+05 2u: 3.45E-05 ir: 6.60E-18 iu: 7.55E-06 rsn: stol

 Step     63 Time=  2.70000E+00 Dt=  5.00000E-02 [y] conv_reason: 4
  newton =   2 [     183] linear =     2 [       183] cuts =  0 [   0]
  --> SNES Linear/Non-Linear Iterations = 2 / 2
  --> SNES Residual: 0.136520E-16 0.136520E-18 0.660347E-17
  --> max change: dpmx=   4.9305E-01

== RICHARDS FLOW ===============================================================
  0 2r: 1.21E-11 2x: 0.00E+00 2u: 0.00E+00 ir: 2.11E-12 iu: 0.00E+00 rsn:   0
  1 2r: 1.46E-16 2x: 7.52E+05 2u: 2.25E+00 ir: 3.11E-17 iu: 4.08E-01 rsn:   0
  2 2r: 2.61E-17 2x: 7.52E+05 2u: 2.36E-05 ir: 1.25E-17 iu: 5.17E-06 rsn: stol

 Step     64 Time=  2.75000E+00 Dt=  5.00000E-02 [y] conv_reason: 4
  newton =   2 [     185] linear =     2 [       185] cuts =  0 [   0]
  --> SNES Linear/Non-Linear Iterations = 2 / 2
  --> SNES Residual: 0.260985E-16 0.260985E-18 0.125152E-16
  --> max change: dpmx=   4.0820E-01

== RICHARDS FLOW ===============================================================
  0 2r: 1.00E-11 2x: 0.00E+00 2u: 0.00E+00 ir: 1.74E-12 iu: 0.00E+00 rsn:   0
  1 2r: 9.98E-17 2x: 7.52E+05 2u: 1.86E+00 ir: 2.13E-17 iu: 3.38E-01 rsn:   0
  2 2r: 2.12E-17 2x: 7.52E+05 2u: 1.62E-05 ir: 1.38E-17 iu: 3.55E-06 rsn: stol

 Step     65 Time=  2.80000E+00 Dt=  5.00000E-02 [y] conv_reason: 4
  newton =   2 [     187] linear =     2 [       187] cuts =  0 [   0]
  --> SNES Linear/Non-Linear Iterations = 2 / 2
  --> SNES Residual: 0.211662E-16 0.211662E-18 0.138253E-16
  --> max change: dpmx=   3.3795E-01

== RICHARDS FLOW ===============================================================
  0 2r: 8.30E-12 2x: 0.00E+00 2u: 0.00E+00 ir: 1.44E-12 iu: 0.00E+00 rsn:   0
  1 2r: 7.06E-17 2x: 7.52E+05 2u: 1.54E+00 ir: 1.46E-17 iu: 2.80E-01 rsn:   0
  2 2r: 2.12E-17 2x: 7.52E+05 2u: 1.11E-05 ir: 9.37E-18 iu: 2.43E-06 rsn: stol

 Step     66 Time=  2.85000E+00 Dt=  5.00000E-02 [y] conv_reason: 4
  newton =   2 [     189] linear =     2 [       189] cuts =  0 [   0]
  --> SNES Linear/Non-Linear Iterations = 2 / 2
  --> SNES Residual: 0.211931E-16 0.211931E-18 0.937422E-17
  --> max change: dpmx=   2.7979E-01

== RICHARDS FLOW ===============================================================
  0 2r: 6.87E-12 2x: 0.00E+00 2u: 0.00E+00 ir: 1.20E-12 iu: 0.00E+00 rsn:   0
  1 2r: 4.95E-17 2x: 7.52E+05 2u: 1.28E+00 ir: 1.00E-17 iu: 2.32E-01 rsn:   0
  2 2r: 2.12E-17 2x: 7.52E+05 2u: 7.61E-06 ir: 1.32E-17 iu: 1.67E-06 rsn: stol

 Step     67 Time=  2.90000E+00 Dt=  5.00000E-02 [y] conv_reason: 4
  newton =   2 [     191] linear =     2 [       191] cuts =  0 [   0]
  --> SNES Linear/Non-Linear Iterations = 2 / 2
  --> SNES Residual: 0.211735E-16 0.211735E-18 0.131784E-16
  --> max change: dpmx=   2.3165E-01

== RICHARDS FLOW ===============================================================
  0 2r: 5.69E-12 2x: 0.00E+00 2u: 0.00E+00 ir: 9.90E-13 iu: 0.00E+00 rsn:   0
  1 2r: 4.62E-17 2x: 7.52E+05 2u: 1.06E+00 ir: 1.27E-17 iu: 1.92E-01 rsn:   0
  2 2r: 1.76E-17 2x: 7.52E+05 2u: 5.22E-06 ir: 9.50E-18 iu: 1.14E-06 rsn: stol

 Step     68 Time=  2.95000E+00 Dt=  5.00000E-02 [y] conv_reason: 4
  newton =   2 [     193] linear =     2 [       193] cuts =  0 [   0]
  --> SNES Linear/Non-Linear Iterations = 2 / 2
  --> SNES Residual: 0.176280E-16 0.176280E-18 0.950022E-17
  --> max change: dpmx=   1.9178E-01

== RICHARDS FLOW ===============================================================
  0 2r: 4.71E-12 2x: 0.00E+00 2u: 0.00E+00 ir: 8.19E-13 iu: 0.00E+00 rsn:   0
  1 2r: 3.78E-17 2x: 7.52E+05 2u: 8.76E-01 ir: 1.20E-17 iu: 1.59E-01 rsn:   0
  2 2r: 2.04E-17 2x: 7.52E+05 2u: 3.58E-06 ir: 8.07E-18 iu: 7.83E-07 rsn: stol

 Step     69 Time=  3.00000E+00 Dt=  5.00000E-02 [y] conv_reason: 4
  newton =   2 [     195] linear =     2 [       195] cuts =  0 [   0]
  --> SNES Linear/Non-Linear Iterations = 2 / 2
  --> SNES Residual: 0.204115E-16 0.204115E-18 0.807011E-17
  --> max change: dpmx=   1.5878E-01

== RICHARDS FLOW ===============================================================
  0 2r: 3.90E-12 2x: 0.00E+00 2u: 0.00E+00 ir: 6.78E-13 iu: 0.00E+00 rsn:   0
  1 2r: 3.06E-17 2x: 7.52E+05 2u: 7.25E-01 ir: 1.20E-17 iu: 1.31E-01 rsn:   0
  2 2r: 1.96E-17 2x: 7.52E+05 2u: 2.45E-06 ir: 1.04E-17 iu: 5.37E-07 rsn: stol

 Step     70 Time=  3.05000E+00 Dt=  5.00000E-02 [y] conv_reason: 4
  newton =   2 [     197] linear =     2 [       197] cuts =  0 [   0]
  --> SNES Linear/Non-Linear Iterations = 2 / 2
  --> SNES Residual: 0.196350E-16 0.196350E-18 0.104268E-16
  --> max change: dpmx=   1.3146E-01

== RICHARDS FLOW ===============================================================
  0 2r: 3.23E-12 2x: 0.00E+00 2u: 0.00E+00 ir: 5.62E-13 iu: 0.00E+00 rsn:   0
  1 2r: 2.12E-17 2x: 7.52E+05 2u: 6.01E-01 ir: 1.12E-17 iu: 1.09E-01 rsn:   0
  2 2r: 1.97E-17 2x: 7.52E+05 2u: 1.68E-06 ir: 1.07E-17 iu: 3.68E-07 rsn: stol

 Step     71 Time=  3.10000E+00 Dt=  5.00000E-02 [y] conv_reason: 4
  newton =   2 [     199] linear =     2 [       199] cuts =  0 [   0]
  --> SNES Linear/Non-Linear Iterations = 2 / 2
  --> SNES Residual: 0.197301E-16 0.197301E-18 0.106955E-16
  --> max change: dpmx=   1.0884E-01

== RICHARDS FLOW ===============================================================
  0 2r: 2.67E-12 2x: 0.00E+00 2u: 0.00E+00 ir: 4.65E-13 iu: 0.00E+00 rsn:   0
  1 2r: 1.48E-17 2x: 7.52E+05 2u: 4.97E-01 ir: 9.10E-18 iu: 9.01E-02 rsn:   0
  2 2r: 2.25E-17 2x: 7.52E+05 2u: 1.15E-06 ir: 1.05E-17 iu: 2.52E-07 rsn: stol

 Step     72 Time=  3.15000E+00 Dt=  5.00000E-02 [y] conv_reason: 4
  newton =   2 [     201] linear =     2 [       201] cuts =  0 [   0]
  --> SNES Linear/Non-Linear Iterations = 2 / 2
  --> SNES Residual: 0.224766E-16 0.224766E-18 0.104883E-16
  --> max change: dpmx=   9.0107E-02

== RICHARDS FLOW ===============================================================
  0 2r: 2.21E-12 2x: 0.00E+00 2u: 0.00E+00 ir: 3.85E-13 iu: 0.00E+00 rsn:   0
  1 2r: 2.11E-17 2x: 7.52E+05 2u: 4.12E-01 ir: 9.84E-18 iu: 7.46E-02 rsn:   0
  2 2r: 2.45E-17 2x: 7.52E+05 2u: 7.90E-07 ir: 1.29E-17 iu: 1.73E-07 rsn: stol

 Step     73 Time=  3.20000E+00 Dt=  5.00000E-02 [y] conv_reason: 4
  newton =   2 [     203] linear =     2 [       203] cuts =  0 [   0]
  --> SNES Linear/Non-Linear Iterations = 2 / 2
  --> SNES Residual: 0.245180E-16 0.245180E-18 0.128729E-16
  --> max change: dpmx=   7.4602E-02

== RICHARDS FLOW ===============================================================
  0 2r: 1.83E-12 2x: 0.00E+00 2u: 0.00E+00 ir: 3.19E-13 iu: 0.00E+00 rsn:   0
  1 2r: 2.76E-17 2x: 7.52E+05 2u: 3.41E-01 ir: 1.32E-17 iu: 6.18E-02 rsn:   0
  2 2r: 3.08E-17 2x: 7.52E+05 2u: 5.41E-07 ir: 1.32E-17 iu: 1.18E-07 rsn: stol

 Step     74 Time=  3.25000E+00 Dt=  5.00000E-02 [y] conv_reason: 4
  newton =   2 [     205] linear =     2 [       205] cuts =  0 [   0]
  --> SNES Linear/Non-Linear Iterations = 2 / 2
  --> SNES Residual: 0.308109E-16 0.308109E-18 0.132471E-16
  --> max change: dpmx=   6.1764E-02

== RICHARDS FLOW ===============================================================
  0 2r: 1.52E-12 2x: 0.00E+00 2u: 0.00E+00 ir: 2.64E-13 iu: 0.00E+00 rsn:   0
  1 2r: 2.09E-17 2x: 7.52E+05 2u: 2.82E-01 ir: 1.16E-17 iu: 5.11E-02 rsn:   0
  2 2r: 2.30E-17 2x: 7.52E+05 2u: 3.71E-07 ir: 1.25E-17 iu: 8.12E-08 rsn: stol

 Step     75 Time=  3.30000E+00 Dt=  5.00000E-02 [y] conv_reason: 4
  newton =   2 [     207] linear =     2 [       207] cuts =  0 [   0]
  --> SNES Linear/Non-Linear Iterations = 2 / 2
  --> SNES Residual: 0.230412E-16 0.230412E-18 0.124542E-16
  --> max change: dpmx=   5.1136E-02

== RICHARDS FLOW ===============================================================
  0 2r: 1.26E-12 2x: 0.00E+00 2u: 0.00E+00 ir: 2.19E-13 iu: 0.00E+00 rsn:   0
  1 2r: 2.76E-17 2x: 7.52E+05 2u: 2.34E-01 ir: 1.36E-17 iu: 4.23E-02 rsn:   0
  2 2r: 2.39E-17 2x: 7.52E+05 2u: 2.54E-07 ir: 9.77E-18 iu: 5.57E-08 rsn: stol

 Step     76 Time=  3.35000E+00 Dt=  5.00000E-02 [y] conv_reason: 4
  newton =   2 [     209] linear =     2 [       209] cuts =  0 [   0]
  --> SNES Linear/Non-Linear Iterations = 2 / 2
  --> SNES Residual: 0.238534E-16 0.238534E-18 0.976968E-17
  --> max change: dpmx=   4.2337E-02

== RICHARDS FLOW ===============================================================
  0 2r: 1.04E-12 2x: 0.00E+00 2u: 0.00E+00 ir: 1.81E-13 iu: 0.00E+00 rsn:   0
  1 2r: 2.41E-17 2x: 7.52E+05 2u: 1.93E-01 ir: 1.18E-17 iu: 3.51E-02 rsn:   0
  2 2r: 3.02E-17 2x: 7.52E+05 2u: 1.74E-07 ir: 1.37E-17 iu: 3.81E-08 rsn: stol

 Step     77 Time=  3.40000E+00 Dt=  5.00000E-02 [y] conv_reason: 4
  newton =   2 [     211] linear =     2 [       211] cuts =  0 [   0]
  --> SNES Linear/Non-Linear Iterations = 2 / 2
  --> SNES Residual: 0.302465E-16 0.302465E-18 0.137398E-16
  --> max change: dpmx=   3.5051E-02

== RICHARDS FLOW ===============================================================
  0 2r: 8.61E-13 2x: 0.00E+00 2u: 0.00E+00 ir: 1.50E-13 iu: 0.00E+00 rsn:   0
  1 2r: 2.38E-17 2x: 7.52E+05 2u: 1.60E-01 ir: 1.22E-17 iu: 2.90E-02 rsn:   0
  2 2r: 2.33E-17 2x: 7.52E+05 2u: 1.20E-07 ir: 1.19E-17 iu: 2.62E-08 rsn: stol

 Step     78 Time=  3.45000E+00 Dt=  5.00000E-02 [y] conv_reason: 4
  newton =   2 [     213] linear =     2 [       213] cuts =  0 [   0]
  --> SNES Linear/Non-Linear Iterations = 2 / 2
  --> SNES Residual: 0.232728E-16 0.232728E-18 0.119116E-16
  --> max change: dpmx=   2.9020E-02

== RICHARDS FLOW ===============================================================
  0 2r: 7.13E-13 2x: 0.00E+00 2u: 0.00E+00 ir: 1.24E-13 iu: 0.00E+00 rsn:   0
  1 2r: 2.57E-17 2x: 7.52E+05 2u: 1.33E-01 ir: 1.39E-17 iu: 2.40E-02 rsn:   0
  2 2r: 3.09E-17 2x: 7.52E+05 2u: 8.19E-08 ir: 1.39E-17 iu: 1.79E-08 rsn: stol

 Step     79 Time=  3.50000E+00 Dt=  5.00000E-02 [y] conv_reason: 4
  newton =   2 [     215] linear =     2 [       215] cuts =  0 [   0]
  --> SNES Linear/Non-Linear Iterations = 2 / 2
  --> SNES Residual: 0.309055E-16 0.309055E-18 0.138996E-16
  --> max change: dpmx=   2.4026E-02

== RICHARDS FLOW ===============================================================
  0 2r: 5.90E-13 2x: 0.00E+00 2u: 0.00E+00 ir: 1.03E-13 iu: 0.00E+00 rsn:   0
  1 2r: 2.67E-17 2x: 7.52E+05 2u: 1.10E-01 ir: 1.20E-17 iu: 1.99E-02 rsn:   0
  2 2r: 2.51E-17 2x: 7.52E+05 2u: 5.62E-08 ir: 1.21E-17 iu: 1.23E-08 rsn: stol

 Step     80 Time=  3.55000E+00 Dt=  5.00000E-02 [y] conv_reason: 4
  newton =   2 [     217] linear =     2 [       217] cuts =  0 [   0]
  --> SNES Linear/Non-Linear Iterations = 2 / 2
  --> SNES Residual: 0.251048E-16 0.251048E-18 0.121333E-16
  --> max change: dpmx=   1.9892E-02

== RICHARDS FLOW ===============================================================
  0 2r: 4.89E-13 2x: 0.00E+00 2u: 0.00E+00 ir: 8.50E-14 iu: 0.00E+00 rsn:   0
  1 2r: 1.76E-17 2x: 7.52E+05 2u: 9.09E-02 ir: 8.05E-18 iu: 1.65E-02 rsn:   0
  2 2r: 2.51E-17 2x: 7.52E+05 2u: 3.85E-08 ir: 1.30E-17 iu: 8.43E-09 rsn: stol

 Step     81 Time=  3.60000E+00 Dt=  5.00000E-02 [y] conv_reason: 4
  newton =   2 [     219] linear =     2 [       219] cuts =  0 [   0]
  --> SNES Linear/Non-Linear Iterations = 2 / 2
  --> SNES Residual: 0.250919E-16 0.250919E-18 0.130196E-16
  --> max change: dpmx=   1.6469E-02

== RICHARDS FLOW ===============================================================
  0 2r: 4.05E-13 2x: 0.00E+00 2u: 0.00E+00 ir: 7.04E-14 iu: 0.00E+00 rsn:   0
  1 2r: 2.41E-17 2x: 7.52E+05 2u: 7.52E-02 ir: 1.20E-17 iu: 1.36E-02 rsn:   0
  2 2r: 2.56E-17 2x: 7.52E+05 2u: 2.64E-08 ir: 1.20E-17 iu: 5.77E-09 rsn: stol

 Step     82 Time=  3.65000E+00 Dt=  5.00000E-02 [y] conv_reason: 4
  newton =   2 [     221] linear =     2 [       221] cuts =  0 [   0]
  --> SNES Linear/Non-Linear Iterations = 2 / 2
  --> SNES Residual: 0.256151E-16 0.256151E-18 0.120011E-16
  --> max change: dpmx=   1.3635E-02

== RICHARDS FLOW ===============================================================
  0 2r: 3.35E-13 2x: 0.00E+00 2u: 0.00E+00 ir: 5.83E-14 iu: 0.00E+00 rsn:   0
  1 2r: 1.48E-17 2x: 7.52E+05 2u: 6.23E-02 ir: 7.15E-18 iu: 1.13E-02 rsn:   0
  2 2r: 1.49E-17 2x: 7.52E+05 2u: 1.81E-08 ir: 7.15E-18 iu: 3.96E-09 rsn: stol

 Step     83 Time=  3.70000E+00 Dt=  5.00000E-02 [y] conv_reason: 4
  newton =   2 [     223] linear =     2 [       223] cuts =  0 [   0]
  --> SNES Linear/Non-Linear Iterations = 2 / 2
  --> SNES Residual: 0.148540E-16 0.148540E-18 0.714557E-17
  --> max change: dpmx=   1.1289E-02

== RICHARDS FLOW ===============================================================
  0 2r: 2.77E-13 2x: 0.00E+00 2u: 0.00E+00 ir: 4.82E-14 iu: 0.00E+00 rsn:   0
  1 2r: 2.56E-17 2x: 7.52E+05 2u: 5.16E-02 ir: 1.30E-17 iu: 9.35E-03 rsn:   0
  2 2r: 2.70E-17 2x: 7.52E+05 2u: 1.24E-08 ir: 1.30E-17 iu: 2.72E-09 rsn: stol

 Step     84 Time=  3.75000E+00 Dt=  5.00000E-02 [y] conv_reason: 4
  newton =   2 [     225] linear =     2 [       225] cuts =  0 [   0]
  --> SNES Linear/Non-Linear Iterations = 2 / 2
  --> SNES Residual: 0.270120E-16 0.270120E-18 0.130104E-16
  --> max change: dpmx=   9.3462E-03

== RICHARDS FLOW ===============================================================
  0 2r: 2.30E-13 2x: 0.00E+00 2u: 0.00E+00 ir: 3.99E-14 iu: 0.00E+00 rsn:   0
  1 2r: 1.77E-17 2x: 7.52E+05 2u: 4.27E-02 ir: 1.15E-17 iu: 7.74E-03 rsn:   0
  2 2r: 1.77E-17 2x: 7.52E+05 2u: 8.51E-09 ir: 1.15E-17 iu: 1.86E-09 rsn: stol

 Step     85 Time=  3.80000E+00 Dt=  5.00000E-02 [y] conv_reason: 4
  newton =   2 [     227] linear =     2 [       227] cuts =  0 [   0]
  --> SNES Linear/Non-Linear Iterations = 2 / 2
  --> SNES Residual: 0.176991E-16 0.176991E-18 0.115432E-16
  --> max change: dpmx=   7.7379E-03

== RICHARDS FLOW ===============================================================
  0 2r: 1.90E-13 2x: 0.00E+00 2u: 0.00E+00 ir: 3.31E-14 iu: 0.00E+00 rsn:   0
  1 2r: 1.43E-17 2x: 7.52E+05 2u: 3.54E-02 ir: 9.12E-18 iu: 6.41E-03 rsn:   0
  2 2r: 1.43E-17 2x: 7.52E+05 2u: 5.84E-09 ir: 9.12E-18 iu: 1.28E-09 rsn: stol

 Step     86 Time=  3.85000E+00 Dt=  5.00000E-02 [y] conv_reason: 4
  newton =   2 [     229] linear =     2 [       229] cuts =  0 [   0]
  --> SNES Linear/Non-Linear Iterations = 2 / 2
  --> SNES Residual: 0.142823E-16 0.142823E-18 0.912456E-17
  --> max change: dpmx=   6.4064E-03

== RICHARDS FLOW ===============================================================
  0 2r: 1.57E-13 2x: 0.00E+00 2u: 0.00E+00 ir: 2.74E-14 iu: 0.00E+00 rsn:   0
  1 2r: 1.71E-17 2x: 7.52E+05 2u: 2.93E-02 ir: 9.40E-18 iu: 5.30E-03 rsn:   0
  2 2r: 1.71E-17 2x: 7.52E+05 2u: 4.01E-09 ir: 9.40E-18 iu: 8.74E-10 rsn: stol

 Step     87 Time=  3.90000E+00 Dt=  5.00000E-02 [y] conv_reason: 4
  newton =   2 [     231] linear =     2 [       231] cuts =  0 [   0]
  --> SNES Linear/Non-Linear Iterations = 2 / 2
  --> SNES Residual: 0.170984E-16 0.170984E-18 0.939582E-17
  --> max change: dpmx=   5.3040E-03

== RICHARDS FLOW ===============================================================
  0 2r: 1.30E-13 2x: 0.00E+00 2u: 0.00E+00 ir: 2.27E-14 iu: 0.00E+00 rsn:   0
  1 2r: 1.60E-17 2x: 7.52E+05 2u: 2.42E-02 ir: 8.00E-18 iu: 4.39E-03 rsn:   0
  2 2r: 1.61E-17 2x: 7.52E+05 2u: 2.73E-09 ir: 8.00E-18 iu: 5.97E-10 rsn: stol

 Step     88 Time=  3.95000E+00 Dt=  5.00000E-02 [y] conv_reason: 4
  newton =   2 [     233] linear =     2 [       233] cuts =  0 [   0]
  --> SNES Linear/Non-Linear Iterations = 2 / 2
  --> SNES Residual: 0.160875E-16 0.160875E-18 0.799980E-17
  --> max change: dpmx=   4.3913E-03

== RICHARDS FLOW ===============================================================
  0 2r: 1.08E-13 2x: 0.00E+00 2u: 0.00E+00 ir: 1.88E-14 iu: 0.00E+00 rsn:   0
  1 2r: 1.20E-17 2x: 7.52E+05 2u: 2.01E-02 ir: 6.54E-18 iu: 3.64E-03 rsn:   0
  2 2r: 1.20E-17 2x: 7.52E+05 2u: 1.87E-09 ir: 6.54E-18 iu: 4.12E-10 rsn: stol

 Step     89 Time=  4.00000E+00 Dt=  5.00000E-02 [y] conv_reason: 4
  newton =   2 [     235] linear =     2 [       235] cuts =  0 [   0]
  --> SNES Linear/Non-Linear Iterations = 2 / 2
  --> SNES Residual: 0.119770E-16 0.119770E-18 0.653624E-17
  --> max change: dpmx=   3.6357E-03

== RICHARDS FLOW ===============================================================
  0 2r: 8.93E-14 2x: 0.00E+00 2u: 0.00E+00 ir: 1.55E-14 iu: 0.00E+00 rsn:   0
  1 2r: 1.30E-17 2x: 7.52E+05 2u: 1.66E-02 ir: 5.90E-18 iu: 3.01E-03 rsn:   0
  2 2r: 2.04E-17 2x: 7.52E+05 2u: 1.27E-09 ir: 1.22E-17 iu: 2.77E-10 rsn: stol

 Step     90 Time=  4.05000E+00 Dt=  5.00000E-02 [y] conv_reason: 4
  newton =   2 [     237] linear =     2 [       237] cuts =  0 [   0]
  --> SNES Linear/Non-Linear Iterations = 2 / 2
  --> SNES Residual: 0.203524E-16 0.203524E-18 0.121908E-16
  --> max change: dpmx=   3.0101E-03

== RICHARDS FLOW ===============================================================
  0 2r: 7.40E-14 2x: 0.00E+00 2u: 0.00E+00 ir: 1.29E-14 iu: 0.00E+00 rsn:   0
  1 2r: 1.95E-17 2x: 7.52E+05 2u: 1.38E-02 ir: 8.76E-18 iu: 2.49E-03 rsn:   0
  2 2r: 1.95E-17 2x: 7.52E+05 2u: 8.92E-10 ir: 8.76E-18 iu: 2.01E-10 rsn: stol

 Step     91 Time=  4.10000E+00 Dt=  5.00000E-02 [y] conv_reason: 4
  newton =   2 [     239] linear =     2 [       239] cuts =  0 [   0]
  --> SNES Linear/Non-Linear Iterations = 2 / 2
  --> SNES Residual: 0.194963E-16 0.194963E-18 0.875874E-17
  --> max change: dpmx=   2.4921E-03

== RICHARDS FLOW ===============================================================
  0 2r: 6.12E-14 2x: 0.00E+00 2u: 0.00E+00 ir: 1.06E-14 iu: 0.00E+00 rsn:   0
  1 2r: 1.70E-17 2x: 7.52E+05 2u: 1.14E-02 ir: 9.05E-18 iu: 2.06E-03 rsn:   0
  2 2r: 1.69E-17 2x: 7.52E+05 2u: 6.11E-10 ir: 9.05E-18 iu: 1.40E-10 rsn: stol

 Step     92 Time=  4.15000E+00 Dt=  5.00000E-02 [y] conv_reason: 4
  newton =   2 [     241] linear =     2 [       241] cuts =  0 [   0]
  --> SNES Linear/Non-Linear Iterations = 2 / 2
  --> SNES Residual: 0.168560E-16 0.168560E-18 0.905478E-17
  --> max change: dpmx=   2.0633E-03

== RICHARDS FLOW ===============================================================
  0 2r: 5.07E-14 2x: 0.00E+00 2u: 0.00E+00 ir: 8.82E-15 iu: 0.00E+00 rsn:   0
  1 2r: 1.93E-17 2x: 7.52E+05 2u: 9.43E-03 ir: 9.00E-18 iu: 1.71E-03 rsn:   0
  2 2r: 1.93E-17 2x: 7.52E+05 2u: 4.20E-10 ir: 9.00E-18 iu: 9.22E-11 rsn: stol

 Step     93 Time=  4.20000E+00 Dt=  5.00000E-02 [y] conv_reason: 4
  newton =   2 [     243] linear =     2 [       243] cuts =  0 [   0]
  --> SNES Linear/Non-Linear Iterations = 2 / 2
  --> SNES Residual: 0.193463E-16 0.193463E-18 0.900184E-17
  --> max change: dpmx=   1.7082E-03

== RICHARDS FLOW ===============================================================
  0 2r: 4.20E-14 2x: 0.00E+00 2u: 0.00E+00 ir: 7.30E-15 iu: 0.00E+00 rsn:   0
  1 2r: 2.00E-17 2x: 7.52E+05 2u: 7.80E-03 ir: 1.19E-17 iu: 1.41E-03 rsn:   0
  2 2r: 2.00E-17 2x: 7.52E+05 2u: 3.15E-10 ir: 1.19E-17 iu: 7.17E-11 rsn: stol

 Step     94 Time=  4.25000E+00 Dt=  5.00000E-02 [y] conv_reason: 4
  newton =   2 [     245] linear =     2 [       245] cuts =  0 [   0]
  --> SNES Linear/Non-Linear Iterations = 2 / 2
  --> SNES Residual: 0.199528E-16 0.199528E-18 0.118816E-16
  --> max change: dpmx=   1.4143E-03

== RICHARDS FLOW ===============================================================
  0 2r: 3.48E-14 2x: 0.00E+00 2u: 0.00E+00 ir: 6.04E-15 iu: 0.00E+00 rsn:   0
  1 2r: 3.03E-17 2x: 7.52E+05 2u: 6.46E-03 ir: 1.29E-17 iu: 1.17E-03 rsn: stol

 Step     95 Time=  4.30000E+00 Dt=  5.00000E-02 [y] conv_reason: 4
  newton =   1 [     246] linear =     1 [       246] cuts =  0 [   0]
  --> SNES Linear/Non-Linear Iterations = 1 / 1
  --> SNES Residual: 0.302652E-16 0.302652E-18 0.129105E-16
  --> max change: dpmx=   1.1709E-03

== RICHARDS FLOW ===============================================================
  0 2r: 2.88E-14 2x: 0.00E+00 2u: 0.00E+00 ir: 5.00E-15 iu: 0.00E+00 rsn:   0
  1 2r: 1.49E-17 2x: 7.52E+05 2u: 5.35E-03 ir: 7.16E-18 iu: 9.69E-04 rsn: stol

 Step     96 Time=  4.35000E+00 Dt=  5.00000E-02 [y] conv_reason: 4
  newton =   1 [     247] linear =     1 [       247] cuts =  0 [   0]
  --> SNES Linear/Non-Linear Iterations = 1 / 1
  --> SNES Residual: 0.149276E-16 0.149276E-18 0.716420E-17
  --> max change: dpmx=   9.6943E-04

== RICHARDS FLOW ===============================================================
  0 2r: 2.38E-14 2x: 0.00E+00 2u: 0.00E+00 ir: 4.14E-15 iu: 0.00E+00 rsn:   0
  1 2r: 2.16E-17 2x: 7.52E+05 2u: 4.43E-03 ir: 9.24E-18 iu: 8.03E-04 rsn: stol

 Step     97 Time=  4.40000E+00 Dt=  5.00000E-02 [y] conv_reason: 4
  newton =   1 [     248] linear =     1 [       248] cuts =  0 [   0]
  --> SNES Linear/Non-Linear Iterations = 1 / 1
  --> SNES Residual: 0.215570E-16 0.215570E-18 0.923795E-17
  --> max change: dpmx=   8.0261E-04

== RICHARDS FLOW ===============================================================
  0 2r: 1.97E-14 2x: 0.00E+00 2u: 0.00E+00 ir: 3.43E-15 iu: 0.00E+00 rsn:   0
  1 2r: 1.98E-17 2x: 7.52E+05 2u: 3.67E-03 ir: 8.97E-18 iu: 6.65E-04 rsn: stol

 Step     98 Time=  4.45000E+00 Dt=  5.00000E-02 [y] conv_reason: 4
  newton =   1 [     249] linear =     1 [       249] cuts =  0 [   0]
  --> SNES Linear/Non-Linear Iterations = 1 / 1
  --> SNES Residual: 0.197784E-16 0.197784E-18 0.897040E-17
  --> max change: dpmx=   6.6450E-04

== RICHARDS FLOW ===============================================================
  0 2r: 1.63E-14 2x: 0.00E+00 2u: 0.00E+00 ir: 2.84E-15 iu: 0.00E+00 rsn:   0
  1 2r: 1.59E-17 2x: 7.52E+05 2u: 3.04E-03 ir: 8.96E-18 iu: 5.50E-04 rsn: stol

 Step     99 Time=  4.50000E+00 Dt=  5.00000E-02 [y] conv_reason: 4
  newton =   1 [     250] linear =     1 [       250] cuts =  0 [   0]
  --> SNES Linear/Non-Linear Iterations = 1 / 1
  --> SNES Residual: 0.158631E-16 0.158631E-18 0.895928E-17
  --> max change: dpmx=   5.5016E-04

== RICHARDS FLOW ===============================================================
  0 2r: 1.35E-14 2x: 0.00E+00 2u: 0.00E+00 ir: 2.35E-15 iu: 0.00E+00 rsn:   0
  1 2r: 1.65E-17 2x: 7.52E+05 2u: 2.51E-03 ir: 8.88E-18 iu: 4.55E-04 rsn: stol

 Step    100 Time=  4.55000E+00 Dt=  5.00000E-02 [y] conv_reason: 4
  newton =   1 [     251] linear =     1 [       251] cuts =  0 [   0]
  --> SNES Linear/Non-Linear Iterations = 1 / 1
  --> SNES Residual: 0.165267E-16 0.165267E-18 0.887923E-17
  --> max change: dpmx=   4.5549E-04

== RICHARDS FLOW ===============================================================
  0 2r: 1.12E-14 2x: 0.00E+00 2u: 0.00E+00 ir: 1.95E-15 iu: 0.00E+00 rsn:   0
  1 2r: 2.00E-17 2x: 7.52E+05 2u: 2.08E-03 ir: 1.11E-17 iu: 3.77E-04 rsn: stol

 Step    101 Time=  4.60000E+00 Dt=  5.00000E-02 [y] conv_reason: 4
  newton =   1 [     252] linear =     1 [       252] cuts =  0 [   0]
  --> SNES Linear/Non-Linear Iterations = 1 / 1
  --> SNES Residual: 0.200287E-16 0.200287E-18 0.111128E-16
  --> max change: dpmx=   3.7711E-04

== RICHARDS FLOW ===============================================================
  0 2r: 9.27E-15 2x: 0.00E+00 2u: 0.00E+00 ir: 1.61E-15 iu: 0.00E+00 rsn:   0
  1 2r: 1.34E-17 2x: 7.52E+05 2u: 1.72E-03 ir: 6.97E-18 iu: 3.12E-04 rsn: stol

 Step    102 Time=  4.65000E+00 Dt=  5.00000E-02 [y] conv_reason: 4
  newton =   1 [     253] linear =     1 [       253] cuts =  0 [   0]
  --> SNES Linear/Non-Linear Iterations = 1 / 1
  --> SNES Residual: 0.134136E-16 0.134136E-18 0.697246E-17
  --> max change: dpmx=   3.1222E-04

== RICHARDS FLOW ===============================================================
  0 2r: 7.67E-15 2x: 0.00E+00 2u: 0.00E+00 ir: 1.33E-15 iu: 0.00E+00 rsn:   0
  1 2r: 2.22E-17 2x: 7.52E+05 2u: 1.43E-03 ir: 1.29E-17 iu: 2.58E-04 rsn: stol

 Step    103 Time=  4.70000E+00 Dt=  5.00000E-02 [y] conv_reason: 4
  newton =   1 [     254] linear =     1 [       254] cuts =  0 [   0]
  --> SNES Linear/Non-Linear Iterations = 1 / 1
  --> SNES Residual: 0.222449E-16 0.222449E-18 0.128919E-16
  --> max change: dpmx=   2.5849E-04

== RICHARDS FLOW ===============================================================
  0 2r: 6.35E-15 2x: 0.00E+00 2u: 0.00E+00 ir: 1.10E-15 iu: 0.00E+00 rsn:   0
  1 2r: 1.96E-17 2x: 7.52E+05 2u: 1.18E-03 ir: 9.18E-18 iu: 2.14E-04 rsn: stol

 Step    104 Time=  4.75000E+00 Dt=  5.00000E-02 [y] conv_reason: 4
  newton =   1 [     255] linear =     1 [       255] cuts =  0 [   0]
  --> SNES Linear/Non-Linear Iterations = 1 / 1
  --> SNES Residual: 0.196321E-16 0.196321E-18 0.918035E-17
  --> max change: dpmx=   2.1401E-04

== RICHARDS FLOW ===============================================================
  0 2r: 5.26E-15 2x: 0.00E+00 2u: 0.00E+00 ir: 9.15E-16 iu: 0.00E+00 rsn:   0
  1 2r: 2.55E-17 2x: 7.52E+05 2u: 9.78E-04 ir: 1.51E-17 iu: 1.77E-04 rsn: stol

 Step    105 Time=  4.80000E+00 Dt=  5.00000E-02 [y] conv_reason: 4
  newton =   1 [     256] linear =     1 [       256] cuts =  0 [   0]
  --> SNES Linear/Non-Linear Iterations = 1 / 1
  --> SNES Residual: 0.255342E-16 0.255342E-18 0.150936E-16
  --> max change: dpmx=   1.7719E-04

== RICHARDS FLOW ===============================================================
  0 2r: 4.35E-15 2x: 0.00E+00 2u: 0.00E+00 ir: 7.57E-16 iu: 0.00E+00 rsn:   0
  1 2r: 1.80E-17 2x: 7.52E+05 2u: 8.10E-04 ir: 8.99E-18 iu: 1.47E-04 rsn: stol

 Step    106 Time=  4.85000E+00 Dt=  5.00000E-02 [y] conv_reason: 4
  newton =   1 [     257] linear =     1 [       257] cuts =  0 [   0]
  --> SNES Linear/Non-Linear Iterations = 1 / 1
  --> SNES Residual: 0.180482E-16 0.180482E-18 0.899041E-17
  --> max change: dpmx=   1.4670E-04

== RICHARDS FLOW ===============================================================
  0 2r: 3.60E-15 2x: 0.00E+00 2u: 0.00E+00 ir: 6.27E-16 iu: 0.00E+00 rsn:   0
  1 2r: 1.73E-17 2x: 7.52E+05 2u: 6.70E-04 ir: 9.06E-18 iu: 1.21E-04 rsn: stol

 Step    107 Time=  4.90000E+00 Dt=  5.00000E-02 [y] conv_reason: 4
  newton =   1 [     258] linear =     1 [       258] cuts =  0 [   0]
  --> SNES Linear/Non-Linear Iterations = 1 / 1
  --> SNES Residual: 0.173063E-16 0.173063E-18 0.905859E-17
  --> max change: dpmx=   1.2145E-04

== RICHARDS FLOW ===============================================================
  0 2r: 2.98E-15 2x: 0.00E+00 2u: 0.00E+00 ir: 5.19E-16 iu: 0.00E+00 rsn:   0
  1 2r: 2.52E-17 2x: 7.52E+05 2u: 5.55E-04 ir: 1.42E-17 iu: 1.01E-04 rsn: stol

 Step    108 Time=  4.95000E+00 Dt=  5.00000E-02 [y] conv_reason: 4
  newton =   1 [     259] linear =     1 [       259] cuts =  0 [   0]
  --> SNES Linear/Non-Linear Iterations = 1 / 1
  --> SNES Residual: 0.251797E-16 0.251797E-18 0.141900E-16
  --> max change: dpmx=   1.0055E-04

== RICHARDS FLOW ===============================================================
  0 2r: 2.47E-15 2x: 0.00E+00 2u: 0.00E+00 ir: 4.30E-16 iu: 0.00E+00 rsn:   0
  1 2r: 2.46E-17 2x: 7.52E+05 2u: 4.59E-04 ir: 1.24E-17 iu: 8.33E-05 rsn: stol

 Step    109 Time=  5.00000E+00 Dt=  5.00000E-02 [y] conv_reason: 4
  newton =   1 [     260] linear =     1 [       260] cuts =  0 [   0]
  --> SNES Linear/Non-Linear Iterations = 1 / 1
  --> SNES Residual: 0.245801E-16 0.245801E-18 0.123983E-16
  --> max change: dpmx=   8.3251E-05

== RICHARDS FLOW ===============================================================
  0 2r: 2.05E-15 2x: 0.00E+00 2u: 0.00E+00 ir: 3.56E-16 iu: 0.00E+00 rsn:   0
  1 2r: 1.85E-17 2x: 7.52E+05 2u: 3.80E-04 ir: 9.17E-18 iu: 6.89E-05 rsn: stol

 Step    110 Time=  5.05000E+00 Dt=  5.00000E-02 [y] conv_reason: 4
  newton =   1 [     261] linear =     1 [       261] cuts =  0 [   0]
  --> SNES Linear/Non-Linear Iterations = 1 / 1
  --> SNES Residual: 0.184675E-16 0.184675E-18 0.916617E-17
  --> max change: dpmx=   6.8926E-05

== RICHARDS FLOW ===============================================================
  0 2r: 1.69E-15 2x: 0.00E+00 2u: 0.00E+00 ir: 2.95E-16 iu: 0.00E+00 rsn:   0
  1 2r: 1.49E-17 2x: 7.52E+05 2u: 3.15E-04 ir: 7.79E-18 iu: 5.71E-05 rsn: stol

 Step    111 Time=  5.10000E+00 Dt=  5.00000E-02 [y] conv_reason: 4
  newton =   1 [     262] linear =     1 [       262] cuts =  0 [   0]
  --> SNES Linear/Non-Linear Iterations = 1 / 1
  --> SNES Residual: 0.149121E-16 0.149121E-18 0.778773E-17
  --> max change: dpmx=   5.7065E-05

== RICHARDS FLOW ===============================================================
  0 2r: 1.40E-15 2x: 0.00E+00 2u: 0.00E+00 ir: 2.44E-16 iu: 0.00E+00 rsn:   0
  1 2r: 2.50E-17 2x: 7.52E+05 2u: 2.61E-04 ir: 1.31E-17 iu: 4.72E-05 rsn: stol

 Step    112 Time=  5.15000E+00 Dt=  5.00000E-02 [y] conv_reason: 4
  newton =   1 [     263] linear =     1 [       263] cuts =  0 [   0]
  --> SNES Linear/Non-Linear Iterations = 1 / 1
  --> SNES Residual: 0.249966E-16 0.249966E-18 0.131428E-16
  --> max change: dpmx=   4.7246E-05

== RICHARDS FLOW ===============================================================
  0 2r: 1.16E-15 2x: 0.00E+00 2u: 0.00E+00 ir: 2.02E-16 iu: 0.00E+00 rsn:   0
  1 2r: 2.35E-17 2x: 7.52E+05 2u: 2.16E-04 ir: 1.20E-17 iu: 3.91E-05 rsn: stol

 Step    113 Time=  5.20000E+00 Dt=  5.00000E-02 [y] conv_reason: 4
  newton =   1 [     264] linear =     1 [       264] cuts =  0 [   0]
  --> SNES Linear/Non-Linear Iterations = 1 / 1
  --> SNES Residual: 0.234941E-16 0.234941E-18 0.120301E-16
  --> max change: dpmx=   3.9116E-05

== RICHARDS FLOW ===============================================================
  0 2r: 9.61E-16 2x: 0.00E+00 2u: 0.00E+00 ir: 1.67E-16 iu: 0.00E+00 rsn:   0
  1 2r: 2.38E-17 2x: 7.52E+05 2u: 1.79E-04 ir: 1.09E-17 iu: 3.24E-05 rsn: stol

 Step    114 Time=  5.25000E+00 Dt=  5.00000E-02 [y] conv_reason: 4
  newton =   1 [     265] linear =     1 [       265] cuts =  0 [   0]
  --> SNES Linear/Non-Linear Iterations = 1 / 1
  --> SNES Residual: 0.238355E-16 0.238355E-18 0.108794E-16
  --> max change: dpmx=   3.2385E-05

== RICHARDS FLOW ===============================================================
  0 2r: 7.96E-16 2x: 0.00E+00 2u: 0.00E+00 ir: 1.38E-16 iu: 0.00E+00 rsn:   0
  1 2r: 1.90E-17 2x: 7.52E+05 2u: 1.48E-04 ir: 8.93E-18 iu: 2.68E-05 rsn: stol

 Step    115 Time=  5.30000E+00 Dt=  5.00000E-02 [y] conv_reason: 4
  newton =   1 [     266] linear =     1 [       266] cuts =  0 [   0]
  --> SNES Linear/Non-Linear Iterations = 1 / 1
  --> SNES Residual: 0.189887E-16 0.189887E-18 0.892953E-17
  --> max change: dpmx=   2.6812E-05

== RICHARDS FLOW ===============================================================
  0 2r: 6.59E-16 2x: 0.00E+00 2u: 0.00E+00 ir: 1.15E-16 iu: 0.00E+00 rsn:   0
  1 2r: 1.59E-17 2x: 7.52E+05 2u: 1.22E-04 ir: 9.05E-18 iu: 2.22E-05 rsn: stol

 Step    116 Time=  5.35000E+00 Dt=  5.00000E-02 [y] conv_reason: 4
  newton =   1 [     267] linear =     1 [       267] cuts =  0 [   0]
  --> SNES Linear/Non-Linear Iterations = 1 / 1
  --> SNES Residual: 0.159278E-16 0.159278E-18 0.904885E-17
  --> max change: dpmx=   2.2198E-05

== RICHARDS FLOW ===============================================================
  0 2r: 5.46E-16 2x: 0.00E+00 2u: 0.00E+00 ir: 9.49E-17 iu: 0.00E+00 rsn:   0
  1 2r: 1.55E-17 2x: 7.52E+05 2u: 1.01E-04 ir: 9.04E-18 iu: 1.84E-05 rsn: stol

 Step    117 Time=  5.40000E+00 Dt=  5.00000E-02 [y] conv_reason: 4
  newton =   1 [     268] linear =     1 [       268] cuts =  0 [   0]
  --> SNES Linear/Non-Linear Iterations = 1 / 1
  --> SNES Residual: 0.154991E-16 0.154991E-18 0.904292E-17
  --> max change: dpmx=   1.8379E-05

== RICHARDS FLOW ===============================================================
  0 2r: 4.52E-16 2x: 0.00E+00 2u: 0.00E+00 ir: 7.85E-17 iu: 0.00E+00 rsn:   0
  1 2r: 1.68E-17 2x: 7.52E+05 2u: 8.40E-05 ir: 9.05E-18 iu: 1.52E-05 rsn: stol

 Step    118 Time=  5.45000E+00 Dt=  5.00000E-02 [y] conv_reason: 4
  newton =   1 [     269] linear =     1 [       269] cuts =  0 [   0]
  --> SNES Linear/Non-Linear Iterations = 1 / 1
  --> SNES Residual: 0.167805E-16 0.167805E-18 0.904822E-17
  --> max change: dpmx=   1.5216E-05

== RICHARDS FLOW ===============================================================
  0 2r: 3.74E-16 2x: 0.00E+00 2u: 0.00E+00 ir: 6.50E-17 iu: 0.00E+00 rsn:   0
  1 2r: 2.05E-17 2x: 7.52E+05 2u: 6.95E-05 ir: 9.16E-18 iu: 1.26E-05 rsn: stol

 Step    119 Time=  5.50000E+00 Dt=  5.00000E-02 [y] conv_reason: 4
[...]
  --> SNES Linear/Non-Linear Iterations = 1 / 1
  --> SNES Residual: 0.220715E-16 0.220715E-18 0.893207E-17
  --> max change: dpmx=   5.7480E-10

== RICHARDS FLOW ===============================================================
  0 2r: 2.21E-17 2x: 0.00E+00 2u: 0.00E+00 ir: 8.93E-18 iu: 0.00E+00 rsn:   0
  1 2r: 2.21E-17 2x: 7.52E+05 2u: 2.59E-09 ir: 8.93E-18 iu: 4.67E-10 rsn: stol

 Step    173 Time=  8.20000E+00 Dt=  5.00000E-02 [y] conv_reason: 4
  newton =   1 [     324] linear =     1 [       324] cuts =  0 [   0]
  --> SNES Linear/Non-Linear Iterations = 1 / 1
  --> SNES Residual: 0.220758E-16 0.220758E-18 0.893207E-17
  --> max change: dpmx=   4.6566E-10

== RICHARDS FLOW ===============================================================
  0 2r: 2.21E-17 2x: 0.00E+00 2u: 0.00E+00 ir: 8.93E-18 iu: 0.00E+00 rsn:   0
  1 2r: 2.27E-17 2x: 7.52E+05 2u: 2.14E-09 ir: 8.93E-18 iu: 3.95E-10 rsn: stol

 Step    174 Time=  8.25000E+00 Dt=  5.00000E-02 [y] conv_reason: 4
  newton =   1 [     325] linear =     1 [       325] cuts =  0 [   0]
  --> SNES Linear/Non-Linear Iterations = 1 / 1
  --> SNES Residual: 0.226601E-16 0.226601E-18 0.893207E-17
  --> max change: dpmx=   3.9290E-10

== RICHARDS FLOW ===============================================================
  0 2r: 2.27E-17 2x: 0.00E+00 2u: 0.00E+00 ir: 8.93E-18 iu: 0.00E+00 rsn:   0
  1 2r: 2.27E-17 2x: 7.52E+05 2u: 1.78E-09 ir: 8.93E-18 iu: 3.28E-10 rsn: stol

 Step    175 Time=  8.30000E+00 Dt=  5.00000E-02 [y] conv_reason: 4
  newton =   1 [     326] linear =     1 [       326] cuts =  0 [   0]
  --> SNES Linear/Non-Linear Iterations = 1 / 1
  --> SNES Residual: 0.226621E-16 0.226621E-18 0.893207E-17
  --> max change: dpmx=   3.2742E-10

== RICHARDS FLOW ===============================================================
  0 2r: 2.27E-17 2x: 0.00E+00 2u: 0.00E+00 ir: 8.93E-18 iu: 0.00E+00 rsn:   0
  1 2r: 2.27E-17 2x: 7.52E+05 2u: 1.47E-09 ir: 8.93E-18 iu: 2.68E-10 rsn: stol

 Step    176 Time=  8.35000E+00 Dt=  5.00000E-02 [y] conv_reason: 4
  newton =   1 [     327] linear =     1 [       327] cuts =  0 [   0]
  --> SNES Linear/Non-Linear Iterations = 1 / 1
  --> SNES Residual: 0.226552E-16 0.226552E-18 0.893207E-17
  --> max change: dpmx=   2.6921E-10

== RICHARDS FLOW ===============================================================
  0 2r: 2.27E-17 2x: 0.00E+00 2u: 0.00E+00 ir: 8.93E-18 iu: 0.00E+00 rsn:   0
  1 2r: 2.27E-17 2x: 7.52E+05 2u: 1.22E-09 ir: 8.93E-18 iu: 2.22E-10 rsn: stol

 Step    177 Time=  8.40000E+00 Dt=  5.00000E-02 [y] conv_reason: 4
  newton =   1 [     328] linear =     1 [       328] cuts =  0 [   0]
  --> SNES Linear/Non-Linear Iterations = 1 / 1
  --> SNES Residual: 0.226551E-16 0.226551E-18 0.893207E-17
  --> max change: dpmx=   2.1828E-10

== RICHARDS FLOW ===============================================================
  0 2r: 2.27E-17 2x: 0.00E+00 2u: 0.00E+00 ir: 8.93E-18 iu: 0.00E+00 rsn:   0
  1 2r: 2.27E-17 2x: 7.52E+05 2u: 1.01E-09 ir: 8.93E-18 iu: 1.88E-10 rsn: stol

 Step    178 Time=  8.45000E+00 Dt=  5.00000E-02 [y] conv_reason: 4
  newton =   1 [     329] linear =     1 [       329] cuts =  0 [   0]
  --> SNES Linear/Non-Linear Iterations = 1 / 1
  --> SNES Residual: 0.226565E-16 0.226565E-18 0.893207E-17
  --> max change: dpmx=   1.8917E-10

== RICHARDS FLOW ===============================================================
  0 2r: 2.27E-17 2x: 0.00E+00 2u: 0.00E+00 ir: 8.93E-18 iu: 0.00E+00 rsn:   0
  1 2r: 2.27E-17 2x: 7.52E+05 2u: 8.30E-10 ir: 8.93E-18 iu: 1.53E-10 rsn: stol

 Step    179 Time=  8.50000E+00 Dt=  5.00000E-02 [y] conv_reason: 4
  newton =   1 [     330] linear =     1 [       330] cuts =  0 [   0]
  --> SNES Linear/Non-Linear Iterations = 1 / 1
  --> SNES Residual: 0.226560E-16 0.226560E-18 0.893207E-17
  --> max change: dpmx=   1.5280E-10

== RICHARDS FLOW ===============================================================
  0 2r: 2.27E-17 2x: 0.00E+00 2u: 0.00E+00 ir: 8.93E-18 iu: 0.00E+00 rsn:   0
  1 2r: 2.26E-17 2x: 7.52E+05 2u: 6.91E-10 ir: 8.93E-18 iu: 1.25E-10 rsn: stol

 Step    180 Time=  8.55000E+00 Dt=  5.00000E-02 [y] conv_reason: 4
  newton =   1 [     331] linear =     1 [       331] cuts =  0 [   0]
  --> SNES Linear/Non-Linear Iterations = 1 / 1
  --> SNES Residual: 0.226025E-16 0.226025E-18 0.893207E-17
  --> max change: dpmx=   1.2369E-10

== RICHARDS FLOW ===============================================================
  0 2r: 2.26E-17 2x: 0.00E+00 2u: 0.00E+00 ir: 8.93E-18 iu: 0.00E+00 rsn:   0
  1 2r: 2.26E-17 2x: 7.52E+05 2u: 5.64E-10 ir: 8.93E-18 iu: 1.03E-10 rsn: stol

 Step    181 Time=  8.60000E+00 Dt=  5.00000E-02 [y] conv_reason: 4
  newton =   1 [     332] linear =     1 [       332] cuts =  0 [   0]
  --> SNES Linear/Non-Linear Iterations = 1 / 1
  --> SNES Residual: 0.226025E-16 0.226025E-18 0.893207E-17
  --> max change: dpmx=   1.0186E-10

== RICHARDS FLOW ===============================================================
  0 2r: 2.26E-17 2x: 0.00E+00 2u: 0.00E+00 ir: 8.93E-18 iu: 0.00E+00 rsn:   0
  1 2r: 2.26E-17 2x: 7.52E+05 2u: 4.80E-10 ir: 8.93E-18 iu: 8.83E-11 rsn: stol

 Step    182 Time=  8.65000E+00 Dt=  5.00000E-02 [y] conv_reason: 4
  newton =   1 [     333] linear =     1 [       333] cuts =  0 [   0]
  --> SNES Linear/Non-Linear Iterations = 1 / 1
  --> SNES Residual: 0.225574E-16 0.225574E-18 0.893207E-17
  --> max change: dpmx=   8.7311E-11

== RICHARDS FLOW ===============================================================
  0 2r: 2.26E-17 2x: 0.00E+00 2u: 0.00E+00 ir: 8.93E-18 iu: 0.00E+00 rsn:   0
  1 2r: 2.26E-17 2x: 7.52E+05 2u: 3.95E-10 ir: 8.93E-18 iu: 7.44E-11 rsn: stol

 Step    183 Time=  8.70000E+00 Dt=  5.00000E-02 [y] conv_reason: 4
  newton =   1 [     334] linear =     1 [       334] cuts =  0 [   0]
  --> SNES Linear/Non-Linear Iterations = 1 / 1
  --> SNES Residual: 0.225572E-16 0.225572E-18 0.893207E-17
  --> max change: dpmx=   7.2760E-11

== RICHARDS FLOW ===============================================================
  0 2r: 2.26E-17 2x: 0.00E+00 2u: 0.00E+00 ir: 8.93E-18 iu: 0.00E+00 rsn:   0
  1 2r: 2.26E-17 2x: 7.52E+05 2u: 3.27E-10 ir: 8.93E-18 iu: 6.25E-11 rsn: stol

 Step    184 Time=  8.75000E+00 Dt=  5.00000E-02 [y] conv_reason: 4
  newton =   1 [     335] linear =     1 [       335] cuts =  0 [   0]
  --> SNES Linear/Non-Linear Iterations = 1 / 1
  --> SNES Residual: 0.225571E-16 0.225571E-18 0.893207E-17
  --> max change: dpmx=   6.5484E-11

== RICHARDS FLOW ===============================================================
  0 2r: 2.26E-17 2x: 0.00E+00 2u: 0.00E+00 ir: 8.93E-18 iu: 0.00E+00 rsn:   0
  1 2r: 2.26E-17 2x: 7.52E+05 2u: 2.70E-10 ir: 8.93E-18 iu: 5.67E-11 rsn: stol

 Step    185 Time=  8.80000E+00 Dt=  5.00000E-02 [y] conv_reason: 4
  newton =   1 [     336] linear =     1 [       336] cuts =  0 [   0]
  --> SNES Linear/Non-Linear Iterations = 1 / 1
  --> SNES Residual: 0.225572E-16 0.225572E-18 0.893207E-17
  --> max change: dpmx=   5.8208E-11

== RICHARDS FLOW ===============================================================
  0 2r: 2.26E-17 2x: 0.00E+00 2u: 0.00E+00 ir: 8.93E-18 iu: 0.00E+00 rsn:   0
  1 2r: 2.26E-17 2x: 7.52E+05 2u: 2.21E-10 ir: 8.93E-18 iu: 4.37E-11 rsn: stol

 Step    186 Time=  8.85000E+00 Dt=  5.00000E-02 [y] conv_reason: 4
  newton =   1 [     337] linear =     1 [       337] cuts =  0 [   0]
  --> SNES Linear/Non-Linear Iterations = 1 / 1
  --> SNES Residual: 0.225573E-16 0.225573E-18 0.893207E-17
  --> max change: dpmx=   4.3656E-11

== RICHARDS FLOW ===============================================================
  0 2r: 2.26E-17 2x: 0.00E+00 2u: 0.00E+00 ir: 8.93E-18 iu: 0.00E+00 rsn:   0
  1 2r: 2.26E-17 2x: 7.52E+05 2u: 1.85E-10 ir: 8.93E-18 iu: 4.02E-11 rsn: stol

 Step    187 Time=  8.90000E+00 Dt=  5.00000E-02 [y] conv_reason: 4
  newton =   1 [     338] linear =     1 [       338] cuts =  0 [   0]
  --> SNES Linear/Non-Linear Iterations = 1 / 1
  --> SNES Residual: 0.225576E-16 0.225576E-18 0.893207E-17
  --> max change: dpmx=   4.3656E-11

== RICHARDS FLOW ===============================================================
  0 2r: 2.26E-17 2x: 0.00E+00 2u: 0.00E+00 ir: 8.93E-18 iu: 0.00E+00 rsn:   0
  1 2r: 2.26E-17 2x: 7.52E+05 2u: 1.59E-10 ir: 8.93E-18 iu: 3.57E-11 rsn: stol

 Step    188 Time=  8.95000E+00 Dt=  5.00000E-02 [y] conv_reason: 4
  newton =   1 [     339] linear =     1 [       339] cuts =  0 [   0]
  --> SNES Linear/Non-Linear Iterations = 1 / 1
  --> SNES Residual: 0.225575E-16 0.225575E-18 0.893207E-17
  --> max change: dpmx=   3.6380E-11

== RICHARDS FLOW ===============================================================
  0 2r: 2.26E-17 2x: 0.00E+00 2u: 0.00E+00 ir: 8.93E-18 iu: 0.00E+00 rsn:   0
  1 2r: 2.26E-17 2x: 7.52E+05 2u: 1.27E-10 ir: 8.93E-18 iu: 2.49E-11 rsn: stol

 Step    189 Time=  9.00000E+00 Dt=  5.00000E-02 [y] conv_reason: 4
  newton =   1 [     340] linear =     1 [       340] cuts =  0 [   0]
  --> SNES Linear/Non-Linear Iterations = 1 / 1
  --> SNES Residual: 0.225572E-16 0.225572E-18 0.893207E-17
  --> max change: dpmx=   2.1828E-11

== RICHARDS FLOW ===============================================================
  0 2r: 2.26E-17 2x: 0.00E+00 2u: 0.00E+00 ir: 8.93E-18 iu: 0.00E+00 rsn:   0
  1 2r: 2.26E-17 2x: 7.52E+05 2u: 1.16E-10 ir: 8.93E-18 iu: 2.52E-11 rsn: stol

 Step    190 Time=  9.05000E+00 Dt=  5.00000E-02 [y] conv_reason: 4
  newton =   1 [     341] linear =     1 [       341] cuts =  0 [   0]
  --> SNES Linear/Non-Linear Iterations = 1 / 1
  --> SNES Residual: 0.225568E-16 0.225568E-18 0.893207E-17
  --> max change: dpmx=   2.1828E-11

== RICHARDS FLOW ===============================================================
  0 2r: 2.26E-17 2x: 0.00E+00 2u: 0.00E+00 ir: 8.93E-18 iu: 0.00E+00 rsn:   0
  1 2r: 2.26E-17 2x: 7.52E+05 2u: 9.87E-11 ir: 8.93E-18 iu: 2.07E-11 rsn: stol

 Step    191 Time=  9.10000E+00 Dt=  5.00000E-02 [y] conv_reason: 4
  newton =   1 [     342] linear =     1 [       342] cuts =  0 [   0]
  --> SNES Linear/Non-Linear Iterations = 1 / 1
  --> SNES Residual: 0.225545E-16 0.225545E-18 0.893207E-17
  --> max change: dpmx=   2.1828E-11

== RICHARDS FLOW ===============================================================
  0 2r: 2.26E-17 2x: 0.00E+00 2u: 0.00E+00 ir: 8.93E-18 iu: 0.00E+00 rsn:   0
  1 2r: 2.26E-17 2x: 7.52E+05 2u: 8.32E-11 ir: 8.93E-18 iu: 1.82E-11 rsn: stol

 Step    192 Time=  9.15000E+00 Dt=  5.00000E-02 [y] conv_reason: 4
  newton =   1 [     343] linear =     1 [       343] cuts =  0 [   0]
  --> SNES Linear/Non-Linear Iterations = 1 / 1
  --> SNES Residual: 0.225545E-16 0.225545E-18 0.893207E-17
  --> max change: dpmx=   2.1828E-11

== RICHARDS FLOW ===============================================================
  0 2r: 2.26E-17 2x: 0.00E+00 2u: 0.00E+00 ir: 8.93E-18 iu: 0.00E+00 rsn:   0
  1 2r: 2.26E-17 2x: 7.52E+05 2u: 7.29E-11 ir: 8.93E-18 iu: 1.69E-11 rsn: stol

 Step    193 Time=  9.20000E+00 Dt=  5.00000E-02 [y] conv_reason: 4
  newton =   1 [     344] linear =     1 [       344] cuts =  0 [   0]
  --> SNES Linear/Non-Linear Iterations = 1 / 1
  --> SNES Residual: 0.225545E-16 0.225545E-18 0.893207E-17
  --> max change: dpmx=   1.4552E-11

== RICHARDS FLOW ===============================================================
  0 2r: 2.26E-17 2x: 0.00E+00 2u: 0.00E+00 ir: 8.93E-18 iu: 0.00E+00 rsn:   0
  1 2r: 2.26E-17 2x: 7.52E+05 2u: 5.89E-11 ir: 8.93E-18 iu: 1.28E-11 rsn: stol

 Step    194 Time=  9.25000E+00 Dt=  5.00000E-02 [y] conv_reason: 4
  newton =   1 [     345] linear =     1 [       345] cuts =  0 [   0]
  --> SNES Linear/Non-Linear Iterations = 1 / 1
  --> SNES Residual: 0.225545E-16 0.225545E-18 0.893207E-17
  --> max change: dpmx=   1.4552E-11

== RICHARDS FLOW ===============================================================
  0 2r: 2.26E-17 2x: 0.00E+00 2u: 0.00E+00 ir: 8.93E-18 iu: 0.00E+00 rsn:   0
  1 2r: 2.26E-17 2x: 7.52E+05 2u: 5.21E-11 ir: 8.93E-18 iu: 1.41E-11 rsn: stol

 Step    195 Time=  9.30000E+00 Dt=  5.00000E-02 [y] conv_reason: 4
  newton =   1 [     346] linear =     1 [       346] cuts =  0 [   0]
  --> SNES Linear/Non-Linear Iterations = 1 / 1
  --> SNES Residual: 0.225545E-16 0.225545E-18 0.893207E-17
  --> max change: dpmx=   1.4552E-11

== RICHARDS FLOW ===============================================================
  0 2r: 2.26E-17 2x: 0.00E+00 2u: 0.00E+00 ir: 8.93E-18 iu: 0.00E+00 rsn:   0
  1 2r: 2.26E-17 2x: 7.52E+05 2u: 4.76E-11 ir: 8.93E-18 iu: 9.83E-12 rsn: stol

 Step    196 Time=  9.35000E+00 Dt=  5.00000E-02 [y] conv_reason: 4
  newton =   1 [     347] linear =     1 [       347] cuts =  0 [   0]
  --> SNES Linear/Non-Linear Iterations = 1 / 1
  --> SNES Residual: 0.225545E-16 0.225545E-18 0.893207E-17
  --> max change: dpmx=   1.4552E-11

== RICHARDS FLOW ===============================================================
  0 2r: 2.26E-17 2x: 0.00E+00 2u: 0.00E+00 ir: 8.93E-18 iu: 0.00E+00 rsn:   0
  1 2r: 2.26E-17 2x: 7.52E+05 2u: 5.03E-11 ir: 8.93E-18 iu: 1.03E-11 rsn: stol

 Step    197 Time=  9.40000E+00 Dt=  5.00000E-02 [y] conv_reason: 4
  newton =   1 [     348] linear =     1 [       348] cuts =  0 [   0]
  --> SNES Linear/Non-Linear Iterations = 1 / 1
  --> SNES Residual: 0.225545E-16 0.225545E-18 0.893207E-17
  --> max change: dpmx=   1.4552E-11

== RICHARDS FLOW ===============================================================
  0 2r: 2.26E-17 2x: 0.00E+00 2u: 0.00E+00 ir: 8.93E-18 iu: 0.00E+00 rsn:   0
  1 2r: 2.26E-17 2x: 7.52E+05 2u: 4.09E-11 ir: 8.93E-18 iu: 9.03E-12 rsn: stol

 Step    198 Time=  9.45000E+00 Dt=  5.00000E-02 [y] conv_reason: 4
  newton =   1 [     349] linear =     1 [       349] cuts =  0 [   0]
  --> SNES Linear/Non-Linear Iterations = 1 / 1
  --> SNES Residual: 0.225545E-16 0.225545E-18 0.893207E-17
  --> max change: dpmx=   1.4552E-11

== RICHARDS FLOW ===============================================================
  0 2r: 2.26E-17 2x: 0.00E+00 2u: 0.00E+00 ir: 8.93E-18 iu: 0.00E+00 rsn:   0
  1 2r: 2.26E-17 2x: 7.52E+05 2u: 4.13E-11 ir: 8.93E-18 iu: 8.96E-12 rsn: stol

 Step    199 Time=  9.50000E+00 Dt=  5.00000E-02 [y] conv_reason: 4
  newton =   1 [     350] linear =     1 [       350] cuts =  0 [   0]
  --> SNES Linear/Non-Linear Iterations = 1 / 1
  --> SNES Residual: 0.225545E-16 0.225545E-18 0.893207E-17
  --> max change: dpmx=   1.4552E-11

== RICHARDS FLOW ===============================================================
  0 2r: 2.26E-17 2x: 0.00E+00 2u: 0.00E+00 ir: 8.93E-18 iu: 0.00E+00 rsn:   0
  1 2r: 2.26E-17 2x: 7.52E+05 2u: 4.27E-11 ir: 8.93E-18 iu: 1.20E-11 rsn: stol

 Step    200 Time=  9.55000E+00 Dt=  5.00000E-02 [y] conv_reason: 4
  newton =   1 [     351] linear =     1 [       351] cuts =  0 [   0]
  --> SNES Linear/Non-Linear Iterations = 1 / 1
  --> SNES Residual: 0.225545E-16 0.225545E-18 0.893207E-17
  --> max change: dpmx=   1.4552E-11

== RICHARDS FLOW ===============================================================
  0 2r: 2.26E-17 2x: 0.00E+00 2u: 0.00E+00 ir: 8.93E-18 iu: 0.00E+00 rsn:   0
  1 2r: 2.26E-17 2x: 7.52E+05 2u: 3.91E-11 ir: 8.93E-18 iu: 7.71E-12 rsn: stol

 Step    201 Time=  9.60000E+00 Dt=  5.00000E-02 [y] conv_reason: 4
  newton =   1 [     352] linear =     1 [       352] cuts =  0 [   0]
  --> SNES Linear/Non-Linear Iterations = 1 / 1
  --> SNES Residual: 0.225545E-16 0.225545E-18 0.893207E-17
  --> max change: dpmx=   1.4552E-11

== RICHARDS FLOW ===============================================================
  0 2r: 2.26E-17 2x: 0.00E+00 2u: 0.00E+00 ir: 8.93E-18 iu: 0.00E+00 rsn:   0
  1 2r: 2.26E-17 2x: 7.52E+05 2u: 3.73E-11 ir: 8.93E-18 iu: 7.52E-12 rsn: stol

 Step    202 Time=  9.65000E+00 Dt=  5.00000E-02 [y] conv_reason: 4
  newton =   1 [     353] linear =     1 [       353] cuts =  0 [   0]
  --> SNES Linear/Non-Linear Iterations = 1 / 1
  --> SNES Residual: 0.225545E-16 0.225545E-18 0.893207E-17
  --> max change: dpmx=   7.2760E-12

== RICHARDS FLOW ===============================================================
  0 2r: 2.26E-17 2x: 0.00E+00 2u: 0.00E+00 ir: 8.93E-18 iu: 0.00E+00 rsn:   0
  1 2r: 2.26E-17 2x: 7.52E+05 2u: 3.76E-11 ir: 8.93E-18 iu: 7.13E-12 rsn: stol

 Step    203 Time=  9.70000E+00 Dt=  5.00000E-02 [y] conv_reason: 4
  newton =   1 [     354] linear =     1 [       354] cuts =  0 [   0]
  --> SNES Linear/Non-Linear Iterations = 1 / 1
  --> SNES Residual: 0.225545E-16 0.225545E-18 0.893207E-17
  --> max change: dpmx=   7.2760E-12

== RICHARDS FLOW ===============================================================
  0 2r: 2.26E-17 2x: 0.00E+00 2u: 0.00E+00 ir: 8.93E-18 iu: 0.00E+00 rsn:   0
  1 2r: 2.26E-17 2x: 7.52E+05 2u: 3.55E-11 ir: 8.93E-18 iu: 7.13E-12 rsn: stol

 Step    204 Time=  9.75000E+00 Dt=  5.00000E-02 [y] conv_reason: 4
  newton =   1 [     355] linear =     1 [       355] cuts =  0 [   0]
  --> SNES Linear/Non-Linear Iterations = 1 / 1
  --> SNES Residual: 0.225545E-16 0.225545E-18 0.893207E-17
  --> max change: dpmx=   7.2760E-12

== RICHARDS FLOW ===============================================================
  0 2r: 2.26E-17 2x: 0.00E+00 2u: 0.00E+00 ir: 8.93E-18 iu: 0.00E+00 rsn:   0
  1 2r: 2.26E-17 2x: 7.52E+05 2u: 3.55E-11 ir: 8.93E-18 iu: 1.11E-11 rsn: stol

 Step    205 Time=  9.80000E+00 Dt=  5.00000E-02 [y] conv_reason: 4
  newton =   1 [     356] linear =     1 [       356] cuts =  0 [   0]
  --> SNES Linear/Non-Linear Iterations = 1 / 1
  --> SNES Residual: 0.225545E-16 0.225545E-18 0.893207E-17
  --> max change: dpmx=   1.4552E-11

== RICHARDS FLOW ===============================================================
  0 2r: 2.26E-17 2x: 0.00E+00 2u: 0.00E+00 ir: 8.93E-18 iu: 0.00E+00 rsn:   0
  1 2r: 2.26E-17 2x: 7.52E+05 2u: 3.61E-11 ir: 8.93E-18 iu: 8.76E-12 rsn: stol

 Step    206 Time=  9.85000E+00 Dt=  5.00000E-02 [y] conv_reason: 4
  newton =   1 [     357] linear =     1 [       357] cuts =  0 [   0]
  --> SNES Linear/Non-Linear Iterations = 1 / 1
  --> SNES Residual: 0.225545E-16 0.225545E-18 0.893207E-17
  --> max change: dpmx=   7.2760E-12

== RICHARDS FLOW ===============================================================
  0 2r: 2.26E-17 2x: 0.00E+00 2u: 0.00E+00 ir: 8.93E-18 iu: 0.00E+00 rsn:   0
  1 2r: 2.26E-17 2x: 7.52E+05 2u: 3.42E-11 ir: 8.93E-18 iu: 7.14E-12 rsn: stol

 Step    207 Time=  9.90000E+00 Dt=  5.00000E-02 [y] conv_reason: 4
  newton =   1 [     358] linear =     1 [       358] cuts =  0 [   0]
  --> SNES Linear/Non-Linear Iterations = 1 / 1
  --> SNES Residual: 0.225545E-16 0.225545E-18 0.893207E-17
  --> max change: dpmx=   7.2760E-12

== RICHARDS FLOW ===============================================================
  0 2r: 2.26E-17 2x: 0.00E+00 2u: 0.00E+00 ir: 8.93E-18 iu: 0.00E+00 rsn:   0
  1 2r: 2.26E-17 2x: 7.52E+05 2u: 3.71E-11 ir: 8.93E-18 iu: 7.14E-12 rsn: stol

 Step    208 Time=  9.95000E+00 Dt=  5.00000E-02 [y] conv_reason: 4
  newton =   1 [     359] linear =     1 [       359] cuts =  0 [   0]
  --> SNES Linear/Non-Linear Iterations = 1 / 1
  --> SNES Residual: 0.225545E-16 0.225545E-18 0.893207E-17
  --> max change: dpmx=   7.2760E-12

== RICHARDS FLOW ===============================================================
  0 2r: 2.26E-17 2x: 0.00E+00 2u: 0.00E+00 ir: 8.93E-18 iu: 0.00E+00 rsn:   0
  1 2r: 2.26E-17 2x: 7.52E+05 2u: 4.04E-11 ir: 8.93E-18 iu: 9.21E-12 rsn: stol

 Step    209 Time=  1.00000E+01 Dt=  5.00000E-02 [y] conv_reason: 4
  newton =   1 [     360] linear =     1 [       360] cuts =  0 [   0]
  --> SNES Linear/Non-Linear Iterations = 1 / 1
  --> SNES Residual: 0.225545E-16 0.225545E-18 0.893207E-17
  --> max change: dpmx=   7.2760E-12

 --> write tecplot output file: 1D_vsat_flow-004.tec
      0.00 Seconds to write to Tecplot file(s)

PMCSubsurfaceFlow
 Total Time: 2.2163E-01 seconds

 FLOW TS SNES steps = 209  newton = 360  linear = 360  cuts = 0
 FLOW TS SNES Wasted Linear Iterations = 0
 FLOW TS SNES Wasted Newton Iterations = 0
 FLOW TS SNES time = 0.2 seconds

 Wall Clock Time:  2.5193E-01 [sec]   4.1989E-03 [min]   6.9981E-05 [hr]
