
=================
  PFLOTRAN v6.0
=================

"grid_structured_type" set to default value.
pflotran card:: NUMERICAL_METHODS
pflotran card:: GRID
pflotran card:: MATERIAL_PROPERTY
  Name :: soil1
pflotran card:: MATERIAL_PROPERTY
  Name :: soil2
pflotran card:: CHARACTERISTIC_CURVES
  Name :: cc1
 WARNING: Mualem-van Genuchten relative permeability function is being used without SMOOTH option.
pflotran card:: CHARACTERISTIC_CURVES
  Name :: cc2
 WARNING: Mualem-van Genuchten relative permeability function is being used without SMOOTH option.
pflotran card:: OUTPUT
pflotran card:: TIME
pflotran card:: REGION
all
pflotran card:: REGION
top
pflotran card:: REGION
bottom
pflotran card:: REGION
top_layer
pflotran card:: REGION
bottom_layer
pflotran card:: REGION
middle
pflotran card:: FLOW_CONDITION
initial_pressure
pflotran card:: FLOW_CONDITION
recharge
pflotran card:: INITIAL_CONDITION
"Initial Condition name" set to default value.
pflotran card:: BOUNDARY_CONDITION
pflotran card:: BOUNDARY_CONDITION
pflotran card:: OBSERVATION
pflotran card:: STRATA
pflotran card:: STRATA
pflotran card:: END_SUBSURFACE

Extent of Gridded Domain
 X: 0.000000E+00 - 1.000000E+00
 Y: 0.000000E+00 - 1.000000E+00
 Z: 0.000000E+00 - 1.000000E+01

Size of Gridded Domain
 Number of grid cells: 100

Number of active grid cells: 100
Number of inactive grid cells: 0


=+=+=+=+=+=+=+=+=+=+=+=+=+=+=+=+=+=+=+=+=+=+=+=+=+=+=+=+=+=+=+=+=+=+=+=+=+=+=+=+

  Initial Condition

--------------------------------------------------------------------------------
          Flow Condition:   initial_pressure
                  Region:   all
--------------------------------------------------------------------------------

  Flow Condition: initial_pressure
    Synchronize time with update: no
    Time units: yr
    Length units: m
      Datum:
        Dataset: Unnamed Ascii Dataset
          Type: dataset_ascii_type
          Transient: no
          Array Rank:  3

    Sub Condition: pressure
      Type: hydrostatic
      Gradient:
      Data:
        Dataset: Unnamed Ascii Dataset
          Type: dataset_ascii_type
          Transient: no
          Array Rank:  1

--------------------------------------------------------------------------------

=+=+=+=+=+=+=+=+=+=+=+=+=+=+=+=+=+=+=+=+=+=+=+=+=+=+=+=+=+=+=+=+=+=+=+=+=+=+=+=+

  Boundary Condition

--------------------------------------------------------------------------------
          Flow Condition:   initial_pressure
                  Region:   bottom
--------------------------------------------------------------------------------

  Flow Condition: initial_pressure
    Synchronize time with update: no
    Time units: yr
    Length units: m
      Datum:
        Dataset: Unnamed Ascii Dataset
          Type: dataset_ascii_type
          Transient: no
          Array Rank:  3

    Sub Condition: pressure
      Type: hydrostatic
      Gradient:
      Data:
        Dataset: Unnamed Ascii Dataset
          Type: dataset_ascii_type
          Transient: no
          Array Rank:  1

--------------------------------------------------------------------------------

=+=+=+=+=+=+=+=+=+=+=+=+=+=+=+=+=+=+=+=+=+=+=+=+=+=+=+=+=+=+=+=+=+=+=+=+=+=+=+=+

  Boundary Condition

--------------------------------------------------------------------------------
          Flow Condition:   recharge
                  Region:   top
--------------------------------------------------------------------------------

  Flow Condition: recharge
    Synchronize time with update: no
    Time units: yr
    Length units: m
      Datum:

    Sub Condition: pressure
      Type: neumann
      Gradient:
      Data:
        Dataset: Unnamed Ascii Dataset
          Type: dataset_ascii_type
          Is transient?: yes
          Number of times:      2
          Is cyclic?: no
          Buffer:
            Rank:  2
            Dims:    1   2
            Buffer Slice Size:   0
          Array Rank:  1

--------------------------------------------------------------------------------
Default HDF5 method is used in Initialization
  Beginning setup of FLOW SNES
 number of dofs =   1, number of phases =   1
 mode = Richards: p
  Finished setting up FLOW SNES

 Requested processors and decomposition =     1, npx,y,z=   -1  -1  -1
 Actual decomposition: npx,y,z=    1   1   1


FLOW Time Stepper SNES
      maximum number of steps: 999999
constant time steps threshold: 5
       maximum number of cuts: 16
             reduction factor: 5.000000E-01
        maximum growth factor: 2.000000E+00
                 acceleration: on
       acceleration threshold: 5
       number of ramp entries: 5
                ramp entry #1: 2.0000
                ramp entry #2: 2.0000
                ramp entry #3: 2.0000
                ramp entry #4: 2.0000
                ramp entry #5: 2.0000
                ramp entry #6: 1.8000
                ramp entry #7: 1.6000
                ramp entry #8: 1.4000
                ramp entry #9: 1.2000
               ramp entry #10: 1.0000
               ramp entry #11: 1.0000
               ramp entry #12: 1.0000
               ramp entry #13: 1.0000

FLOW Newton Solver
                         atol: 1.000000E-50
                         rtol: 1.000000E-08
                         stol: 1.000000E-08
                         dtol: 1.000000E+04
                      maxnorm: 1.000000E+20
                    inftolres: -9.990000E+02
                    inftolupd: -9.990000E+02
                 inftolrelupd: -9.990000E+02
                 inftolsclres: -9.990000E+02
                     max iter: 50
                     min iter: 1
                         maxf: 10000
                  matrix type: baij
         precond. matrix type: baij
               inexact newton: off
            print convergence: on
   print detailed convergence: off
          check infinity norm: on

FLOW Linear Solver
                       solver: preonly
               preconditioner: lu
                         atol: 1.000000E-50
                         rtol: 1.000000E-05
                         dtol: 1.000000E+04
            maximum iteration: 10000

 --> write tecplot output file: 1D_vsat_flow_pulse_2layer-000.tec
      0.01 Seconds to write to Tecplot file(s)

 Finished Initialization


== RICHARDS FLOW ===============================================================
  0 2r: 1.76E-06 2x: 0.00E+00 2u: 0.00E+00 ir: 1.76E-06 iu: 0.00E+00 rsn:   0
  1 2r: 8.62E-08 2x: 6.83E+05 2u: 3.89E+03 ir: 8.59E-08 iu: 3.89E+03 rsn:   0
  2 2r: 1.89E-10 2x: 6.83E+05 2u: 1.73E+02 ir: 1.88E-10 iu: 1.73E+02 rsn:   0
  3 2r: 9.17E-16 2x: 6.83E+05 2u: 3.81E-01 ir: 9.11E-16 iu: 3.80E-01 rsn: rtol

 Step      1 Time=  1.14155E-04 Dt=  1.14155E-04 [y] conv_reason: 3
  newton =   3 [       3] linear =     3 [         3] cuts =  0 [   0]
  --> SNES Linear/Non-Linear Iterations = 3 / 3
  --> SNES Residual: 0.916785E-15 0.916785E-17 0.910811E-15
  --> max change: dpmx=   3.7143E+03

== RICHARDS FLOW ===============================================================
  0 2r: 1.72E-06 2x: 0.00E+00 2u: 0.00E+00 ir: 1.72E-06 iu: 0.00E+00 rsn:   0
  1 2r: 1.78E-07 2x: 6.83E+05 2u: 6.80E+03 ir: 1.75E-07 iu: 6.79E+03 rsn:   0
  2 2r: 1.59E-09 2x: 6.83E+05 2u: 5.68E+02 ir: 1.54E-09 iu: 5.62E+02 rsn:   0
  3 2r: 1.26E-13 2x: 6.83E+05 2u: 5.15E+00 ir: 1.23E-13 iu: 5.03E+00 rsn:   0
  4 2r: 4.17E-17 2x: 6.83E+05 2u: 4.09E-04 ir: 1.97E-17 iu: 4.01E-04 rsn: rtol

 Step      2 Time=  3.42466E-04 Dt=  2.28311E-04 [y] conv_reason: 3
  newton =   4 [       7] linear =     4 [         7] cuts =  0 [   0]
  --> SNES Linear/Non-Linear Iterations = 4 / 4
  --> SNES Residual: 0.417012E-16 0.417012E-18 0.197325E-16
  --> max change: dpmx=   6.2178E+03

== RICHARDS FLOW ===============================================================
  0 2r: 1.62E-06 2x: 0.00E+00 2u: 0.00E+00 ir: 1.62E-06 iu: 0.00E+00 rsn:   0
  1 2r: 3.66E-07 2x: 6.84E+05 2u: 1.05E+04 ir: 3.44E-07 iu: 1.02E+04 rsn:   0
  2 2r: 1.28E-08 2x: 6.84E+05 2u: 1.41E+03 ir: 1.12E-08 iu: 1.39E+03 rsn:   0
  3 2r: 1.44E-11 2x: 6.84E+05 2u: 5.23E+01 ir: 1.29E-11 iu: 4.68E+01 rsn:   0
  4 2r: 3.76E-17 2x: 6.84E+05 2u: 5.93E-02 ir: 1.71E-17 iu: 5.45E-02 rsn: rtol

 Step      3 Time=  7.99087E-04 Dt=  4.56621E-04 [y] conv_reason: 3
  newton =   4 [      11] linear =     4 [        11] cuts =  0 [   0]
  --> SNES Linear/Non-Linear Iterations = 4 / 4
  --> SNES Residual: 0.375875E-16 0.375875E-18 0.171135E-16
  --> max change: dpmx=   8.7202E+03

== RICHARDS FLOW ===============================================================
  0 2r: 1.42E-06 2x: 0.00E+00 2u: 0.00E+00 ir: 1.37E-06 iu: 0.00E+00 rsn:   0
  1 2r: 4.90E-07 2x: 6.85E+05 2u: 1.52E+04 ir: 4.69E-07 iu: 1.17E+04 rsn:   0
  2 2r: 3.69E-08 2x: 6.85E+05 2u: 2.17E+03 ir: 3.05E-08 iu: 1.98E+03 rsn:   0
  3 2r: 1.88E-10 2x: 6.85E+05 2u: 1.36E+02 ir: 1.49E-10 iu: 1.24E+02 rsn:   0
  4 2r: 4.41E-15 2x: 6.85E+05 2u: 6.95E-01 ir: 3.54E-15 iu: 5.84E-01 rsn: rtol

 Step      4 Time=  1.71233E-03 Dt=  9.13242E-04 [y] conv_reason: 3
  newton =   4 [      15] linear =     4 [        15] cuts =  0 [   0]
  --> SNES Linear/Non-Linear Iterations = 4 / 4
  --> SNES Residual: 0.440682E-14 0.440682E-16 0.353725E-14
  --> max change: dpmx=   9.5670E+03

== RICHARDS FLOW ===============================================================
  0 2r: 1.16E-06 2x: 0.00E+00 2u: 0.00E+00 ir: 9.77E-07 iu: 0.00E+00 rsn:   0
  1 2r: 6.72E-07 2x: 6.87E+05 2u: 2.31E+04 ir: 5.60E-07 iu: 1.69E+04 rsn:   0
  2 2r: 1.05E-07 2x: 6.87E+05 2u: 4.03E+03 ir: 8.35E-08 iu: 3.36E+03 rsn:   0
  3 2r: 1.93E-09 2x: 6.87E+05 2u: 5.30E+02 ir: 1.57E-09 iu: 4.11E+02 rsn:   0
  4 2r: 5.99E-13 2x: 6.87E+05 2u: 9.53E+00 ir: 4.89E-13 iu: 7.33E+00 rsn:   0
  5 2r: 5.26E-17 2x: 6.87E+05 2u: 2.94E-03 ir: 2.57E-17 iu: 2.27E-03 rsn: rtol

 Step      5 Time=  3.53881E-03 Dt=  1.82648E-03 [y] conv_reason: 3
  newton =   5 [      20] linear =     5 [        20] cuts =  0 [   0]
  --> SNES Linear/Non-Linear Iterations = 5 / 5
  --> SNES Residual: 0.526036E-16 0.526036E-18 0.256685E-16
  --> max change: dpmx=   1.3174E+04

== RICHARDS FLOW ===============================================================
  0 2r: 9.44E-07 2x: 0.00E+00 2u: 0.00E+00 ir: 6.09E-07 iu: 0.00E+00 rsn:   0
  1 2r: 5.88E-08 2x: 6.87E+05 2u: 5.61E+03 ir: 5.23E-08 iu: 3.46E+03 rsn:   0
  2 2r: 3.13E-10 2x: 6.87E+05 2u: 2.63E+02 ir: 3.06E-10 iu: 1.96E+02 rsn:   0
  3 2r: 8.92E-15 2x: 6.87E+05 2u: 9.66E-01 ir: 7.88E-15 iu: 8.75E-01 rsn: rtol

 Step      6 Time=  4.14155E-03 Dt=  6.02740E-04 [y] conv_reason: 3
  newton =   3 [      23] linear =     3 [        23] cuts =  0 [   0]
  --> SNES Linear/Non-Linear Iterations = 3 / 3
  --> SNES Residual: 0.891958E-14 0.891958E-16 0.787740E-14
  --> max change: dpmx=   3.3162E+03

== RICHARDS FLOW ===============================================================
  0 2r: 8.95E-07 2x: 0.00E+00 2u: 0.00E+00 ir: 5.66E-07 iu: 0.00E+00 rsn:   0
  1 2r: 1.23E-07 2x: 6.88E+05 2u: 1.07E+04 ir: 9.48E-08 iu: 6.79E+03 rsn:   0
  2 2r: 2.60E-09 2x: 6.88E+05 2u: 8.82E+02 ir: 1.72E-09 iu: 6.65E+02 rsn:   0
  3 2r: 9.77E-13 2x: 6.88E+05 2u: 1.38E+01 ir: 7.97E-13 iu: 1.07E+01 rsn:   0
  4 2r: 5.23E-17 2x: 6.88E+05 2u: 4.87E-03 ir: 3.21E-17 iu: 3.85E-03 rsn: rtol

 Step      7 Time=  5.34703E-03 Dt=  1.20548E-03 [y] conv_reason: 3
  newton =   4 [      27] linear =     4 [        27] cuts =  0 [   0]
  --> SNES Linear/Non-Linear Iterations = 4 / 4
  --> SNES Residual: 0.522626E-16 0.522626E-18 0.321059E-16
  --> max change: dpmx=   6.1156E+03

== RICHARDS FLOW ===============================================================
  0 2r: 8.27E-07 2x: 0.00E+00 2u: 0.00E+00 ir: 4.80E-07 iu: 0.00E+00 rsn:   0
  1 2r: 2.69E-07 2x: 6.91E+05 2u: 1.96E+04 ir: 2.08E-07 iu: 1.18E+04 rsn:   0
  2 2r: 1.82E-08 2x: 6.90E+05 2u: 2.60E+03 ir: 1.39E-08 iu: 1.70E+03 rsn:   0
  3 2r: 5.06E-11 2x: 6.90E+05 2u: 1.33E+02 ir: 3.85E-11 iu: 7.89E+01 rsn:   0
  4 2r: 3.49E-16 2x: 6.90E+05 2u: 3.68E-01 ir: 2.22E-16 iu: 2.02E-01 rsn: rtol

 Step      8 Time=  7.75799E-03 Dt=  2.41096E-03 [y] conv_reason: 3
  newton =   4 [      31] linear =     4 [        31] cuts =  0 [   0]
  --> SNES Linear/Non-Linear Iterations = 4 / 4
  --> SNES Residual: 0.348978E-15 0.348978E-17 0.222285E-15
  --> max change: dpmx=   9.9989E+03

== RICHARDS FLOW ===============================================================
  0 2r: 7.41E-07 2x: 0.00E+00 2u: 0.00E+00 ir: 3.92E-07 iu: 0.00E+00 rsn:   0
  1 2r: 6.06E-07 2x: 6.96E+05 2u: 3.38E+04 ir: 4.33E-07 iu: 1.88E+04 rsn:   0
  2 2r: 1.09E-07 2x: 6.95E+05 2u: 6.22E+03 ir: 7.22E-08 iu: 3.83E+03 rsn:   0
  3 2r: 3.13E-09 2x: 6.95E+05 2u: 9.11E+02 ir: 2.20E-09 iu: 5.22E+02 rsn:   0
  4 2r: 1.83E-12 2x: 6.95E+05 2u: 2.02E+01 ir: 1.34E-12 iu: 1.20E+01 rsn:   0
  5 2r: 3.42E-17 2x: 6.95E+05 2u: 1.34E-02 ir: 1.67E-17 iu: 8.53E-03 rsn: rtol

 Step      9 Time=  1.25799E-02 Dt=  4.82192E-03 [y] conv_reason: 3
  newton =   5 [      36] linear =     5 [        36] cuts =  0 [   0]
  --> SNES Linear/Non-Linear Iterations = 5 / 5
  --> SNES Residual: 0.341782E-16 0.341782E-18 0.167272E-16
  --> max change: dpmx=   1.4458E+04

== RICHARDS FLOW ===============================================================
  0 2r: 6.41E-07 2x: 0.00E+00 2u: 0.00E+00 ir: 3.00E-07 iu: 0.00E+00 rsn:   0
  1 2r: 4.74E-08 2x: 6.96E+05 2u: 8.21E+03 ir: 2.91E-08 iu: 4.10E+03 rsn:   0
  2 2r: 3.54E-10 2x: 6.96E+05 2u: 4.37E+02 ir: 2.80E-10 iu: 2.59E+02 rsn:   0
  3 2r: 2.21E-14 2x: 6.96E+05 2u: 2.36E+00 ir: 2.05E-14 iu: 1.67E+00 rsn:   0
  4 2r: 4.86E-17 2x: 6.96E+05 2u: 9.94E-05 ir: 2.83E-17 iu: 8.21E-05 rsn: rtol

 Step     10 Time=  1.41711E-02 Dt=  1.59123E-03 [y] conv_reason: 3
  newton =   4 [      40] linear =     4 [        40] cuts =  0 [   0]
  --> SNES Linear/Non-Linear Iterations = 4 / 4
  --> SNES Residual: 0.485999E-16 0.485999E-18 0.283045E-16
  --> max change: dpmx=   3.8564E+03

== RICHARDS FLOW ===============================================================
  0 2r: 6.16E-07 2x: 0.00E+00 2u: 0.00E+00 ir: 2.72E-07 iu: 0.00E+00 rsn:   0
  1 2r: 1.11E-07 2x: 6.99E+05 2u: 1.62E+04 ir: 6.49E-08 iu: 7.97E+03 rsn:   0
  2 2r: 3.80E-09 2x: 6.99E+05 2u: 1.59E+03 ir: 2.79E-09 iu: 9.20E+02 rsn:   0
  3 2r: 4.14E-12 2x: 6.99E+05 2u: 3.61E+01 ir: 3.68E-12 iu: 2.41E+01 rsn:   0
  4 2r: 5.28E-17 2x: 6.99E+05 2u: 2.45E-02 ir: 2.15E-17 iu: 1.93E-02 rsn: rtol

 Step     11 Time=  1.73536E-02 Dt=  3.18247E-03 [y] conv_reason: 3
  newton =   4 [      44] linear =     4 [        44] cuts =  0 [   0]
  --> SNES Linear/Non-Linear Iterations = 4 / 4
  --> SNES Residual: 0.528429E-16 0.528429E-18 0.214841E-16
  --> max change: dpmx=   7.1176E+03

== RICHARDS FLOW ===============================================================
  0 2r: 5.78E-07 2x: 0.00E+00 2u: 0.00E+00 ir: 2.43E-07 iu: 0.00E+00 rsn:   0
  1 2r: 2.93E-07 2x: 7.05E+05 2u: 3.09E+04 ir: 1.84E-07 iu: 1.47E+04 rsn:   0
  2 2r: 3.78E-08 2x: 7.04E+05 2u: 4.94E+03 ir: 2.55E-08 iu: 2.68E+03 rsn:   0
  3 2r: 5.65E-10 2x: 7.04E+05 2u: 4.39E+02 ir: 3.86E-10 iu: 2.41E+02 rsn:   0
  4 2r: 6.45E-14 2x: 7.04E+05 2u: 3.83E+00 ir: 4.32E-14 iu: 2.25E+00 rsn:   0
  5 2r: 2.55E-17 2x: 7.04E+05 2u: 4.64E-04 ir: 1.64E-17 iu: 2.44E-04 rsn: rtol

 Step     12 Time=  2.37185E-02 Dt=  6.36493E-03 [y] conv_reason: 3
  newton =   5 [      49] linear =     5 [        49] cuts =  0 [   0]
  --> SNES Linear/Non-Linear Iterations = 5 / 5
  --> SNES Residual: 0.255159E-16 0.255159E-18 0.164409E-16
  --> max change: dpmx=   1.1818E+04

== RICHARDS FLOW ===============================================================
  0 2r: 5.24E-07 2x: 0.00E+00 2u: 0.00E+00 ir: 2.06E-07 iu: 0.00E+00 rsn:   0
  1 2r: 3.17E-08 2x: 7.06E+05 2u: 7.98E+03 ir: 1.68E-08 iu: 3.52E+03 rsn:   0
  2 2r: 1.73E-10 2x: 7.06E+05 2u: 3.74E+02 ir: 1.20E-10 iu: 1.96E+02 rsn:   0
  3 2r: 6.60E-15 2x: 7.06E+05 2u: 1.51E+00 ir: 5.44E-15 iu: 9.61E-01 rsn:   0
  4 2r: 2.25E-17 2x: 7.06E+05 2u: 3.74E-05 ir: 1.16E-17 iu: 2.75E-05 rsn: rtol

 Step     13 Time=  2.58190E-02 Dt=  2.10043E-03 [y] conv_reason: 3
  newton =   4 [      53] linear =     4 [        53] cuts =  0 [   0]
  --> SNES Linear/Non-Linear Iterations = 4 / 4
  --> SNES Residual: 0.225339E-16 0.225339E-18 0.115874E-16
  --> max change: dpmx=   3.3254E+03

== RICHARDS FLOW ===============================================================
  0 2r: 5.10E-07 2x: 0.00E+00 2u: 0.00E+00 ir: 1.95E-07 iu: 0.00E+00 rsn:   0
  1 2r: 7.71E-08 2x: 7.09E+05 2u: 1.61E+04 ir: 4.12E-08 iu: 7.06E+03 rsn:   0
  2 2r: 2.18E-09 2x: 7.09E+05 2u: 1.44E+03 ir: 1.45E-09 iu: 7.36E+02 rsn:   0
  3 2r: 1.73E-12 2x: 7.09E+05 2u: 2.63E+01 ir: 1.31E-12 iu: 1.57E+01 rsn:   0
  4 2r: 5.41E-17 2x: 7.09E+05 2u: 1.21E-02 ir: 3.03E-17 iu: 8.36E-03 rsn: rtol

 Step     14 Time=  3.00198E-02 Dt=  4.20085E-03 [y] conv_reason: 3
  newton =   4 [      57] linear =     4 [        57] cuts =  0 [   0]
  --> SNES Linear/Non-Linear Iterations = 4 / 4
  --> SNES Residual: 0.540603E-16 0.540603E-18 0.303068E-16
  --> max change: dpmx=   6.3188E+03

== RICHARDS FLOW ===============================================================
  0 2r: 4.87E-07 2x: 0.00E+00 2u: 0.00E+00 ir: 1.79E-07 iu: 0.00E+00 rsn:   0
  1 2r: 2.21E-07 2x: 7.17E+05 2u: 3.14E+04 ir: 1.23E-07 iu: 1.33E+04 rsn:   0
  2 2r: 2.66E-08 2x: 7.16E+05 2u: 4.83E+03 ir: 1.51E-08 iu: 2.40E+03 rsn:   0
  3 2r: 3.35E-10 2x: 7.16E+05 2u: 3.78E+02 ir: 2.34E-10 iu: 2.08E+02 rsn:   0
  4 2r: 4.05E-14 2x: 7.16E+05 2u: 2.58E+00 ir: 3.07E-14 iu: 1.71E+00 rsn:   0
  5 2r: 6.12E-17 2x: 7.16E+05 2u: 1.96E-04 ir: 2.68E-17 iu: 1.39E-04 rsn: rtol

 Step     15 Time=  3.84215E-02 Dt=  8.40171E-03 [y] conv_reason: 3
  newton =   5 [      62] linear =     5 [        62] cuts =  0 [   0]
  --> SNES Linear/Non-Linear Iterations = 5 / 5
  --> SNES Residual: 0.612097E-16 0.612097E-18 0.267967E-16
  --> max change: dpmx=   1.1022E+04

== RICHARDS FLOW ===============================================================
  0 2r: 4.51E-07 2x: 0.00E+00 2u: 0.00E+00 ir: 1.58E-07 iu: 0.00E+00 rsn:   0
  1 2r: 2.58E-08 2x: 7.18E+05 2u: 8.24E+03 ir: 1.28E-08 iu: 3.27E+03 rsn:   0
  2 2r: 1.32E-10 2x: 7.18E+05 2u: 3.74E+02 ir: 8.19E-11 iu: 1.83E+02 rsn:   0
  3 2r: 4.64E-15 2x: 7.18E+05 2u: 1.40E+00 ir: 2.91E-15 iu: 8.17E-01 rsn:   0
  4 2r: 3.33E-17 2x: 7.18E+05 2u: 3.01E-05 ir: 1.90E-17 iu: 2.02E-05 rsn: rtol

 Step     16 Time=  4.11941E-02 Dt=  2.77256E-03 [y] conv_reason: 3
  newton =   4 [      66] linear =     4 [        66] cuts =  0 [   0]
  --> SNES Linear/Non-Linear Iterations = 4 / 4
  --> SNES Residual: 0.332619E-16 0.332619E-18 0.189939E-16
  --> max change: dpmx=   3.1088E+03

== RICHARDS FLOW ===============================================================
  0 2r: 4.42E-07 2x: 0.00E+00 2u: 0.00E+00 ir: 1.51E-07 iu: 0.00E+00 rsn:   0
  1 2r: 6.46E-08 2x: 7.22E+05 2u: 1.67E+04 ir: 3.27E-08 iu: 6.65E+03 rsn:   0
  2 2r: 1.80E-09 2x: 7.22E+05 2u: 1.47E+03 ir: 1.02E-09 iu: 7.01E+02 rsn:   0
  3 2r: 1.39E-12 2x: 7.22E+05 2u: 2.58E+01 ir: 9.62E-13 iu: 1.44E+01 rsn:   0
  4 2r: 3.70E-17 2x: 7.22E+05 2u: 1.09E-02 ir: 2.55E-17 iu: 7.28E-03 rsn: rtol

 Step     17 Time=  4.67392E-02 Dt=  5.54513E-03 [y] conv_reason: 3
  newton =   4 [      70] linear =     4 [        70] cuts =  0 [   0]
  --> SNES Linear/Non-Linear Iterations = 4 / 4
  --> SNES Residual: 0.370250E-16 0.370250E-18 0.255380E-16
  --> max change: dpmx=   5.9729E+03

== RICHARDS FLOW ===============================================================
  0 2r: 4.25E-07 2x: 0.00E+00 2u: 0.00E+00 ir: 1.42E-07 iu: 0.00E+00 rsn:   0
  1 2r: 1.95E-07 2x: 7.31E+05 2u: 3.30E+04 ir: 1.01E-07 iu: 1.28E+04 rsn:   0
  2 2r: 2.41E-08 2x: 7.30E+05 2u: 5.07E+03 ir: 1.29E-08 iu: 2.29E+03 rsn:   0
  3 2r: 3.18E-10 2x: 7.30E+05 2u: 3.95E+02 ir: 2.03E-10 iu: 2.00E+02 rsn:   0
  4 2r: 3.58E-14 2x: 7.30E+05 2u: 2.66E+00 ir: 2.80E-14 iu: 1.65E+00 rsn:   0
  5 2r: 6.59E-17 2x: 7.30E+05 2u: 1.95E-04 ir: 2.89E-17 iu: 1.32E-04 rsn: rtol

 Step     18 Time=  5.78295E-02 Dt=  1.10903E-02 [y] conv_reason: 3
  newton =   5 [      75] linear =     5 [        75] cuts =  0 [   0]
  --> SNES Linear/Non-Linear Iterations = 5 / 5
  --> SNES Residual: 0.658560E-16 0.658560E-18 0.289296E-16
  --> max change: dpmx=   1.0456E+04

== RICHARDS FLOW ===============================================================
  0 2r: 3.97E-07 2x: 0.00E+00 2u: 0.00E+00 ir: 1.26E-07 iu: 0.00E+00 rsn:   0
  1 2r: 2.29E-08 2x: 7.33E+05 2u: 8.65E+03 ir: 1.04E-08 iu: 3.12E+03 rsn:   0
  2 2r: 1.21E-10 2x: 7.33E+05 2u: 3.93E+02 ir: 6.74E-11 iu: 1.73E+02 rsn:   0
  3 2r: 4.47E-15 2x: 7.33E+05 2u: 1.49E+00 ir: 2.93E-15 iu: 8.03E-01 rsn:   0
  4 2r: 4.56E-17 2x: 7.33E+05 2u: 3.24E-05 ir: 2.79E-17 iu: 2.09E-05 rsn: rtol

 Step     19 Time=  6.14893E-02 Dt=  3.65978E-03 [y] conv_reason: 3
  newton =   4 [      79] linear =     4 [        79] cuts =  0 [   0]
  --> SNES Linear/Non-Linear Iterations = 4 / 4
  --> SNES Residual: 0.455541E-16 0.455541E-18 0.278945E-16
  --> max change: dpmx=   2.9484E+03

== RICHARDS FLOW ===============================================================
  0 2r: 3.90E-07 2x: 0.00E+00 2u: 0.00E+00 ir: 1.22E-07 iu: 0.00E+00 rsn:   0
  1 2r: 5.86E-08 2x: 7.38E+05 2u: 1.76E+04 ir: 2.67E-08 iu: 6.30E+03 rsn:   0
  2 2r: 1.72E-09 2x: 7.38E+05 2u: 1.56E+03 ir: 9.52E-10 iu: 6.77E+02 rsn:   0
  3 2r: 1.44E-12 2x: 7.38E+05 2u: 2.79E+01 ir: 9.04E-13 iu: 1.39E+01 rsn:   0
  4 2r: 3.62E-17 2x: 7.38E+05 2u: 1.22E-02 ir: 2.29E-17 iu: 7.30E-03 rsn: rtol

 Step     20 Time=  6.88088E-02 Dt=  7.31957E-03 [y] conv_reason: 3
  newton =   4 [      83] linear =     4 [        83] cuts =  0 [   0]
  --> SNES Linear/Non-Linear Iterations = 4 / 4
  --> SNES Residual: 0.362447E-16 0.362447E-18 0.228851E-16
  --> max change: dpmx=   5.6815E+03

== RICHARDS FLOW ===============================================================
  0 2r: 3.77E-07 2x: 0.00E+00 2u: 0.00E+00 ir: 1.14E-07 iu: 0.00E+00 rsn:   0
  1 2r: 1.84E-07 2x: 7.49E+05 2u: 3.45E+04 ir: 8.73E-08 iu: 1.21E+04 rsn:   0
  2 2r: 2.39E-08 2x: 7.48E+05 2u: 5.38E+03 ir: 1.22E-08 iu: 2.20E+03 rsn:   0
  3 2r: 3.45E-10 2x: 7.48E+05 2u: 4.32E+02 ir: 1.94E-10 iu: 2.00E+02 rsn:   0
  4 2r: 4.50E-14 2x: 7.48E+05 2u: 3.06E+00 ir: 3.12E-14 iu: 1.74E+00 rsn:   0
  5 2r: 4.73E-17 2x: 7.48E+05 2u: 2.47E-04 ir: 2.38E-17 iu: 1.53E-04 rsn: rtol

 Step     21 Time=  8.34480E-02 Dt=  1.46391E-02 [y] conv_reason: 3
  newton =   5 [      88] linear =     5 [        88] cuts =  0 [   0]
  --> SNES Linear/Non-Linear Iterations = 5 / 5
  --> SNES Residual: 0.473044E-16 0.473044E-18 0.237885E-16
  --> max change: dpmx=   9.8202E+03

== RICHARDS FLOW ===============================================================
  0 2r: 3.54E-07 2x: 0.00E+00 2u: 0.00E+00 ir: 1.03E-07 iu: 0.00E+00 rsn:   0
  1 2r: 2.09E-08 2x: 7.51E+05 2u: 9.00E+03 ir: 8.71E-09 iu: 2.92E+03 rsn:   0
  2 2r: 1.16E-10 2x: 7.51E+05 2u: 4.13E+02 ir: 5.94E-11 iu: 1.65E+02 rsn:   0
  3 2r: 4.65E-15 2x: 7.51E+05 2u: 1.60E+00 ir: 2.89E-15 iu: 7.83E-01 rsn:   0
  4 2r: 5.32E-17 2x: 7.51E+05 2u: 3.62E-05 ir: 2.55E-17 iu: 2.15E-05 rsn: rtol

 Step     22 Time=  8.82789E-02 Dt=  4.83092E-03 [y] conv_reason: 3
  newton =   4 [      92] linear =     4 [        92] cuts =  0 [   0]
  --> SNES Linear/Non-Linear Iterations = 4 / 4
  --> SNES Residual: 0.532075E-16 0.532075E-18 0.255279E-16
  --> max change: dpmx=   2.7695E+03

== RICHARDS FLOW ===============================================================
  0 2r: 3.48E-07 2x: 0.00E+00 2u: 0.00E+00 ir: 9.94E-08 iu: 0.00E+00 rsn:   0
  1 2r: 5.46E-08 2x: 7.58E+05 2u: 1.81E+04 ir: 2.31E-08 iu: 5.85E+03 rsn:   0
  2 2r: 1.69E-09 2x: 7.57E+05 2u: 1.63E+03 ir: 8.16E-10 iu: 6.36E+02 rsn:   0
  3 2r: 1.53E-12 2x: 7.57E+05 2u: 2.99E+01 ir: 8.74E-13 iu: 1.39E+01 rsn:   0
  4 2r: 4.29E-17 2x: 7.57E+05 2u: 1.36E-02 ir: 2.33E-17 iu: 7.69E-03 rsn: rtol

 Step     23 Time=  9.79407E-02 Dt=  9.66183E-03 [y] conv_reason: 3
  newton =   4 [      96] linear =     4 [        96] cuts =  0 [   0]
  --> SNES Linear/Non-Linear Iterations = 4 / 4
  --> SNES Residual: 0.429429E-16 0.429429E-18 0.233247E-16
  --> max change: dpmx=   5.2656E+03

== RICHARDS FLOW ===============================================================
  0 2r: 3.37E-07 2x: 0.00E+00 2u: 0.00E+00 ir: 9.38E-08 iu: 0.00E+00 rsn:   0
  1 2r: 1.73E-07 2x: 7.71E+05 2u: 3.49E+04 ir: 7.41E-08 iu: 1.09E+04 rsn:   0
  2 2r: 2.30E-08 2x: 7.69E+05 2u: 5.50E+03 ir: 1.04E-08 iu: 2.01E+03 rsn:   0
  3 2r: 3.42E-10 2x: 7.69E+05 2u: 4.42E+02 ir: 1.84E-10 iu: 1.88E+02 rsn:   0
  4 2r: 4.68E-14 2x: 7.69E+05 2u: 3.14E+00 ir: 3.11E-14 iu: 1.67E+00 rsn:   0
  5 2r: 3.85E-17 2x: 7.69E+05 2u: 2.50E-04 ir: 2.04E-17 iu: 1.49E-04 rsn: rtol

 Step     24 Time=  1.17264E-01 Dt=  1.93237E-02 [y] conv_reason: 3
  newton =   5 [     101] linear =     5 [       101] cuts =  0 [   0]
  --> SNES Linear/Non-Linear Iterations = 5 / 5
  --> SNES Residual: 0.385042E-16 0.385042E-18 0.203711E-16
  --> max change: dpmx=   8.8896E+03

== RICHARDS FLOW ===============================================================
  0 2r: 3.15E-07 2x: 0.00E+00 2u: 0.00E+00 ir: 8.33E-08 iu: 0.00E+00 rsn:   0
  1 2r: 1.88E-08 2x: 7.73E+05 2u: 9.01E+03 ir: 7.08E-09 iu: 2.60E+03 rsn:   0
  2 2r: 1.06E-10 2x: 7.73E+05 2u: 4.11E+02 ir: 5.04E-11 iu: 1.47E+02 rsn:   0
  3 2r: 4.23E-15 2x: 7.73E+05 2u: 1.57E+00 ir: 2.30E-15 iu: 6.84E-01 rsn:   0
  4 2r: 4.04E-17 2x: 7.73E+05 2u: 3.41E-05 ir: 2.25E-17 iu: 1.77E-05 rsn: rtol

 Step     25 Time=  1.23641E-01 Dt=  6.37681E-03 [y] conv_reason: 3
  newton =   4 [     105] linear =     4 [       105] cuts =  0 [   0]
  --> SNES Linear/Non-Linear Iterations = 4 / 4
  --> SNES Residual: 0.404068E-16 0.404068E-18 0.225311E-16
  --> max change: dpmx=   2.4681E+03

== RICHARDS FLOW ===============================================================
  0 2r: 3.10E-07 2x: 0.00E+00 2u: 0.00E+00 ir: 8.06E-08 iu: 0.00E+00 rsn:   0
  1 2r: 4.95E-08 2x: 7.80E+05 2u: 1.78E+04 ir: 1.88E-08 iu: 5.10E+03 rsn:   0
  2 2r: 1.53E-09 2x: 7.80E+05 2u: 1.59E+03 ir: 6.61E-10 iu: 5.53E+02 rsn:   0
  3 2r: 1.30E-12 2x: 7.80E+05 2u: 2.81E+01 ir: 6.69E-13 iu: 1.17E+01 rsn:   0
  4 2r: 5.22E-17 2x: 7.80E+05 2u: 1.18E-02 ir: 2.66E-17 iu: 6.05E-03 rsn: rtol

 Step     26 Time=  1.36395E-01 Dt=  1.27536E-02 [y] conv_reason: 3
  newton =   4 [     109] linear =     4 [       109] cuts =  0 [   0]
  --> SNES Linear/Non-Linear Iterations = 4 / 4
  --> SNES Residual: 0.522454E-16 0.522454E-18 0.265850E-16
  --> max change: dpmx=   4.5683E+03

== RICHARDS FLOW ===============================================================
  0 2r: 2.99E-07 2x: 0.00E+00 2u: 0.00E+00 ir: 7.54E-08 iu: 0.00E+00 rsn:   0
  1 2r: 1.48E-07 2x: 7.96E+05 2u: 3.34E+04 ir: 5.61E-08 iu: 8.97E+03 rsn:   0
  2 2r: 1.83E-08 2x: 7.94E+05 2u: 5.07E+03 ir: 7.48E-09 iu: 1.63E+03 rsn:   0
  3 2r: 2.25E-10 2x: 7.94E+05 2u: 3.68E+02 ir: 1.04E-10 iu: 1.38E+02 rsn:   0
  4 2r: 2.08E-14 2x: 7.94E+05 2u: 2.14E+00 ir: 1.18E-14 iu: 9.95E-01 rsn:   0
  5 2r: 2.61E-17 2x: 7.94E+05 2u: 1.09E-04 ir: 1.73E-17 iu: 5.80E-05 rsn: rtol

 Step     27 Time=  1.61902E-01 Dt=  2.55072E-02 [y] conv_reason: 3
  newton =   5 [     114] linear =     5 [       114] cuts =  0 [   0]
  --> SNES Linear/Non-Linear Iterations = 5 / 5
  --> SNES Residual: 0.261060E-16 0.261060E-18 0.172841E-16
  --> max change: dpmx=   7.3117E+03

== RICHARDS FLOW ===============================================================
  0 2r: 2.84E-07 2x: 0.00E+00 2u: 0.00E+00 ir: 6.58E-08 iu: 0.00E+00 rsn:   0
  1 2r: 1.57E-08 2x: 7.98E+05 2u: 8.84E+03 ir: 5.29E-09 iu: 2.13E+03 rsn:   0
  2 2r: 7.86E-11 2x: 7.98E+05 2u: 3.73E+02 ir: 3.29E-11 iu: 1.14E+02 rsn:   0
  3 2r: 2.46E-15 2x: 7.98E+05 2u: 1.23E+00 ir: 1.20E-15 iu: 4.73E-01 rsn: rtol

 Step     28 Time=  1.70319E-01 Dt=  8.41739E-03 [y] conv_reason: 3
  newton =   3 [     117] linear =     3 [       117] cuts =  0 [   0]
  --> SNES Linear/Non-Linear Iterations = 3 / 3
  --> SNES Residual: 0.245716E-14 0.245716E-16 0.119932E-14
  --> max change: dpmx=   2.0195E+03

== RICHARDS FLOW ===============================================================
  0 2r: 2.85E-07 2x: 0.00E+00 2u: 0.00E+00 ir: 6.35E-08 iu: 0.00E+00 rsn:   0
  1 2r: 4.03E-08 2x: 8.07E+05 2u: 1.81E+04 ir: 1.33E-08 iu: 4.27E+03 rsn:   0
  2 2r: 1.07E-09 2x: 8.06E+05 2u: 1.56E+03 ir: 4.02E-10 iu: 4.23E+02 rsn:   0
  3 2r: 6.87E-13 2x: 8.06E+05 2u: 2.27E+01 ir: 2.92E-13 iu: 9.33E+00 rsn:   0
  4 2r: 4.79E-17 2x: 8.06E+05 2u: 8.61E-03 ir: 2.66E-17 iu: 4.17E-03 rsn: rtol

 Step     29 Time=  1.87154E-01 Dt=  1.68348E-02 [y] conv_reason: 3
  newton =   4 [     121] linear =     4 [       121] cuts =  0 [   0]
  --> SNES Linear/Non-Linear Iterations = 4 / 4
  --> SNES Residual: 0.478625E-16 0.478625E-18 0.266036E-16
  --> max change: dpmx=   3.8854E+03

== RICHARDS FLOW ===============================================================
  0 2r: 2.96E-07 2x: 0.00E+00 2u: 0.00E+00 ir: 7.21E-08 iu: 0.00E+00 rsn:   0
  1 2r: 2.76E-08 2x: 8.13E+05 2u: 1.28E+04 ir: 7.66E-09 iu: 3.27E+03 rsn:   0
  2 2r: 4.18E-10 2x: 8.12E+05 2u: 9.15E+02 ir: 2.66E-10 iu: 2.53E+02 rsn:   0
  3 2r: 1.60E-13 2x: 8.12E+05 2u: 9.26E+00 ir: 1.07E-13 iu: 4.73E+00 rsn:   0
  4 2r: 4.45E-17 2x: 8.12E+05 2u: 1.76E-03 ir: 2.02E-17 iu: 9.22E-04 rsn: rtol

 Step     30 Time=  2.00000E-01 Dt=  1.28458E-02 [y] conv_reason: 3
  newton =   4 [     125] linear =     4 [       125] cuts =  0 [   0]
  --> SNES Linear/Non-Linear Iterations = 4 / 4
  --> SNES Residual: 0.444541E-16 0.444541E-18 0.201526E-16
  --> max change: dpmx=   3.0124E+03

== RICHARDS FLOW ===============================================================
  0 2r: 1.78E-06 2x: 0.00E+00 2u: 0.00E+00 ir: 1.75E-06 iu: 0.00E+00 rsn:   0
  1 2r: 6.99E-07 2x: 8.17E+05 2u: 3.18E+04 ir: 6.32E-07 iu: 9.78E+03 rsn:   0
  2 2r: 1.80E-07 2x: 8.14E+05 2u: 7.37E+03 ir: 1.59E-07 iu: 2.85E+03 rsn:   0
  3 2r: 1.46E-08 2x: 8.14E+05 2u: 1.44E+03 ir: 1.22E-08 iu: 7.04E+02 rsn:   0
  4 2r: 6.93E-11 2x: 8.14E+05 2u: 5.53E+01 ir: 5.38E-11 iu: 3.69E+01 rsn:   0
  5 2r: 1.02E-15 2x: 8.14E+05 2u: 1.75E-01 ir: 7.28E-16 iu: 1.12E-01 rsn: rtol

 Step     31 Time=  2.33670E-01 Dt=  3.36696E-02 [y] conv_reason: 3
  newton =   5 [     130] linear =     5 [       130] cuts =  0 [   0]
  --> SNES Linear/Non-Linear Iterations = 5 / 5
  --> SNES Residual: 0.102018E-14 0.102018E-16 0.727659E-15
  --> max change: dpmx=   8.4573E+03

== RICHARDS FLOW ===============================================================
  0 2r: 3.55E-07 2x: 0.00E+00 2u: 0.00E+00 ir: 9.62E-08 iu: 0.00E+00 rsn:   0
  1 2r: 2.82E-08 2x: 8.14E+05 2u: 9.12E+03 ir: 9.83E-09 iu: 2.19E+03 rsn:   0
  2 2r: 3.66E-10 2x: 8.14E+05 2u: 5.89E+02 ir: 1.91E-10 iu: 1.86E+02 rsn:   0
  3 2r: 1.10E-13 2x: 8.14E+05 2u: 5.18E+00 ir: 6.63E-14 iu: 2.52E+00 rsn:   0
  4 2r: 3.80E-17 2x: 8.14E+05 2u: 9.05E-04 ir: 2.23E-17 iu: 6.09E-04 rsn: rtol

 Step     32 Time=  2.44781E-01 Dt=  1.11110E-02 [y] conv_reason: 3
  newton =   4 [     134] linear =     4 [       134] cuts =  0 [   0]
  --> SNES Linear/Non-Linear Iterations = 4 / 4
  --> SNES Residual: 0.380068E-16 0.380068E-18 0.223024E-16
  --> max change: dpmx=   2.1223E+03

== RICHARDS FLOW ===============================================================
  0 2r: 3.05E-07 2x: 0.00E+00 2u: 0.00E+00 ir: 7.68E-08 iu: 0.00E+00 rsn:   0
  1 2r: 7.19E-08 2x: 8.15E+05 2u: 1.56E+04 ir: 3.36E-08 iu: 4.64E+03 rsn:   0
  2 2r: 7.18E-09 2x: 8.14E+05 2u: 1.91E+03 ir: 4.02E-09 iu: 7.94E+02 rsn:   0
  3 2r: 8.01E-11 2x: 8.14E+05 2u: 1.21E+02 ir: 4.64E-11 iu: 6.41E+01 rsn:   0
  4 2r: 7.82E-15 2x: 8.14E+05 2u: 7.40E-01 ir: 5.49E-15 iu: 4.74E-01 rsn:   0
  5 2r: 3.30E-17 2x: 8.14E+05 2u: 4.66E-05 ir: 1.66E-17 iu: 3.17E-05 rsn: rtol

 Step     33 Time=  2.67002E-01 Dt=  2.22219E-02 [y] conv_reason: 3
  newton =   5 [     139] linear =     5 [       139] cuts =  0 [   0]
  --> SNES Linear/Non-Linear Iterations = 5 / 5
  --> SNES Residual: 0.329928E-16 0.329928E-18 0.166192E-16
  --> max change: dpmx=   3.8957E+03

== RICHARDS FLOW ===============================================================
  0 2r: 2.37E-07 2x: 0.00E+00 2u: 0.00E+00 ir: 5.19E-08 iu: 0.00E+00 rsn:   0
  1 2r: 9.47E-09 2x: 8.14E+05 2u: 4.67E+03 ir: 4.13E-09 iu: 1.18E+03 rsn:   0
  2 2r: 4.69E-11 2x: 8.14E+05 2u: 1.60E+02 ir: 2.80E-11 iu: 6.80E+01 rsn:   0
  3 2r: 1.87E-15 2x: 8.14E+05 2u: 5.76E-01 ir: 1.10E-15 iu: 3.27E-01 rsn: rtol

 Step     34 Time=  2.74336E-01 Dt=  7.33323E-03 [y] conv_reason: 3
  newton =   3 [     142] linear =     3 [       142] cuts =  0 [   0]
  --> SNES Linear/Non-Linear Iterations = 3 / 3
  --> SNES Residual: 0.186651E-14 0.186651E-16 0.109939E-14
  --> max change: dpmx=   1.1155E+03

== RICHARDS FLOW ===============================================================
  0 2r: 2.19E-07 2x: 0.00E+00 2u: 0.00E+00 ir: 4.91E-08 iu: 0.00E+00 rsn:   0
  1 2r: 2.48E-08 2x: 8.14E+05 2u: 8.56E+03 ir: 1.18E-08 iu: 2.43E+03 rsn:   0
  2 2r: 8.04E-10 2x: 8.13E+05 2u: 6.26E+02 ir: 4.60E-10 iu: 2.76E+02 rsn:   0
  3 2r: 8.79E-13 2x: 8.13E+05 2u: 1.23E+01 ir: 6.06E-13 iu: 6.91E+00 rsn:   0
  4 2r: 3.53E-17 2x: 8.13E+05 2u: 7.45E-03 ir: 1.74E-17 iu: 5.07E-03 rsn: rtol

 Step     35 Time=  2.89002E-01 Dt=  1.46665E-02 [y] conv_reason: 3
  newton =   4 [     146] linear =     4 [       146] cuts =  0 [   0]
  --> SNES Linear/Non-Linear Iterations = 4 / 4
  --> SNES Residual: 0.353156E-16 0.353156E-18 0.173659E-16
  --> max change: dpmx=   2.1528E+03

== RICHARDS FLOW ===============================================================
  0 2r: 1.91E-07 2x: 0.00E+00 2u: 0.00E+00 ir: 4.66E-08 iu: 0.00E+00 rsn:   0
  1 2r: 7.41E-08 2x: 8.13E+05 2u: 1.43E+04 ir: 3.77E-08 iu: 4.27E+03 rsn:   0
  2 2r: 9.98E-09 2x: 8.13E+05 2u: 1.89E+03 ir: 5.70E-09 iu: 8.11E+02 rsn:   0
  3 2r: 1.62E-10 2x: 8.13E+05 2u: 1.55E+02 ir: 1.04E-10 iu: 8.30E+01 rsn:   0
  4 2r: 2.83E-14 2x: 8.13E+05 2u: 1.36E+00 ir: 1.98E-14 iu: 8.79E-01 rsn:   0
  5 2r: 4.63E-17 2x: 8.13E+05 2u: 1.61E-04 ir: 2.66E-17 iu: 1.10E-04 rsn: rtol

 Step     36 Time=  3.18335E-01 Dt=  2.93329E-02 [y] conv_reason: 3
  newton =   5 [     151] linear =     5 [       151] cuts =  0 [   0]
  --> SNES Linear/Non-Linear Iterations = 5 / 5
  --> SNES Residual: 0.463238E-16 0.463238E-18 0.266269E-16
  --> max change: dpmx=   3.3827E+03

== RICHARDS FLOW ===============================================================
  0 2r: 1.52E-07 2x: 0.00E+00 2u: 0.00E+00 ir: 3.97E-08 iu: 0.00E+00 rsn:   0
  1 2r: 7.31E-09 2x: 8.12E+05 2u: 4.11E+03 ir: 3.38E-09 iu: 9.58E+02 rsn:   0
  2 2r: 4.07E-11 2x: 8.12E+05 2u: 1.34E+02 ir: 2.37E-11 iu: 5.50E+01 rsn:   0
  3 2r: 1.55E-15 2x: 8.12E+05 2u: 4.73E-01 ir: 1.01E-15 iu: 2.57E-01 rsn:   0
  4 2r: 4.20E-17 2x: 8.12E+05 2u: 1.05E-05 ir: 2.18E-17 iu: 6.73E-06 rsn: rtol

 Step     37 Time=  3.28015E-01 Dt=  9.67986E-03 [y] conv_reason: 3
  newton =   4 [     155] linear =     4 [       155] cuts =  0 [   0]
  --> SNES Linear/Non-Linear Iterations = 4 / 4
  --> SNES Residual: 0.419541E-16 0.419541E-18 0.218179E-16
  --> max change: dpmx=   9.0320E+02

== RICHARDS FLOW ===============================================================
  0 2r: 1.42E-07 2x: 0.00E+00 2u: 0.00E+00 ir: 3.76E-08 iu: 0.00E+00 rsn:   0
  1 2r: 1.76E-08 2x: 8.11E+05 2u: 7.23E+03 ir: 8.22E-09 iu: 1.69E+03 rsn:   0
  2 2r: 4.69E-10 2x: 8.11E+05 2u: 4.50E+02 ir: 2.51E-10 iu: 1.83E+02 rsn:   0
  3 2r: 2.97E-13 2x: 8.11E+05 2u: 6.47E+00 ir: 1.91E-13 iu: 3.47E+00 rsn:   0
  4 2r: 3.41E-17 2x: 8.11E+05 2u: 2.23E-03 ir: 2.32E-17 iu: 1.44E-03 rsn: rtol

 Step     38 Time=  3.47375E-01 Dt=  1.93597E-02 [y] conv_reason: 3
  newton =   4 [     159] linear =     4 [       159] cuts =  0 [   0]
  --> SNES Linear/Non-Linear Iterations = 4 / 4
  --> SNES Residual: 0.340794E-16 0.340794E-18 0.232019E-16
  --> max change: dpmx=   1.5138E+03

== RICHARDS FLOW ===============================================================
  0 2r: 1.25E-07 2x: 0.00E+00 2u: 0.00E+00 ir: 3.30E-08 iu: 0.00E+00 rsn:   0
  1 2r: 3.50E-08 2x: 8.09E+05 2u: 1.10E+04 ir: 1.60E-08 iu: 2.24E+03 rsn:   0
  2 2r: 2.41E-09 2x: 8.09E+05 2u: 1.00E+03 ir: 1.25E-09 iu: 3.58E+02 rsn:   0
  3 2r: 9.24E-12 2x: 8.09E+05 2u: 3.42E+01 ir: 5.39E-12 iu: 1.75E+01 rsn:   0
  4 2r: 9.43E-17 2x: 8.09E+05 2u: 7.19E-02 ir: 5.51E-17 iu: 4.32E-02 rsn: rtol

 Step     39 Time=  3.86094E-01 Dt=  3.87194E-02 [y] conv_reason: 3
  newton =   4 [     163] linear =     4 [       163] cuts =  0 [   0]
  --> SNES Linear/Non-Linear Iterations = 4 / 4
  --> SNES Residual: 0.942863E-16 0.942863E-18 0.551468E-16
  --> max change: dpmx=   2.1164E+03

== RICHARDS FLOW ===============================================================
  0 2r: 9.48E-08 2x: 0.00E+00 2u: 0.00E+00 ir: 2.33E-08 iu: 0.00E+00 rsn:   0
  1 2r: 1.72E-08 2x: 8.06E+05 2u: 1.03E+04 ir: 7.08E-09 iu: 2.09E+03 rsn:   0
  2 2r: 5.29E-10 2x: 8.05E+05 2u: 6.93E+02 ir: 2.50E-10 iu: 1.51E+02 rsn:   0
  3 2r: 4.16E-13 2x: 8.05E+05 2u: 7.13E+00 ir: 2.39E-13 iu: 3.34E+00 rsn:   0
  4 2r: 4.64E-17 2x: 8.05E+05 2u: 3.02E-03 ir: 2.43E-17 iu: 1.74E-03 rsn: rtol

 Step     40 Time=  4.36094E-01 Dt=  5.00000E-02 [y] conv_reason: 3
  newton =   4 [     167] linear =     4 [       167] cuts =  0 [   0]
  --> SNES Linear/Non-Linear Iterations = 4 / 4
  --> SNES Residual: 0.464316E-16 0.464316E-18 0.243302E-16
  --> max change: dpmx=   2.2347E+03

== RICHARDS FLOW ===============================================================
  0 2r: 6.41E-08 2x: 0.00E+00 2u: 0.00E+00 ir: 1.29E-08 iu: 0.00E+00 rsn:   0
  1 2r: 4.14E-09 2x: 8.01E+05 2u: 8.51E+03 ir: 1.36E-09 iu: 1.80E+03 rsn:   0
  2 2r: 1.58E-11 2x: 8.01E+05 2u: 4.06E+02 ir: 7.42E-12 iu: 9.90E+01 rsn:   0
  3 2r: 2.18E-16 2x: 8.01E+05 2u: 9.73E-01 ir: 1.35E-16 iu: 2.74E-01 rsn: rtol

 Step     41 Time=  4.86094E-01 Dt=  5.00000E-02 [y] conv_reason: 3
  newton =   3 [     170] linear =     3 [       170] cuts =  0 [   0]
  --> SNES Linear/Non-Linear Iterations = 3 / 3
  --> SNES Residual: 0.217685E-15 0.217685E-17 0.135149E-15
  --> max change: dpmx=   1.8965E+03

== RICHARDS FLOW ===============================================================
  0 2r: 4.61E-08 2x: 0.00E+00 2u: 0.00E+00 ir: 6.60E-09 iu: 0.00E+00 rsn:   0
  1 2r: 3.99E-10 2x: 8.00E+05 2u: 2.39E+03 ir: 1.07E-10 iu: 5.11E+02 rsn:   0
  2 2r: 4.14E-14 2x: 8.00E+05 2u: 2.37E+01 ir: 1.44E-14 iu: 5.65E+00 rsn:   0
  3 2r: 4.51E-17 2x: 8.00E+05 2u: 2.59E-03 ir: 2.24E-17 iu: 6.89E-04 rsn: rtol

 Step     42 Time=  5.00000E-01 Dt=  1.39060E-02 [y] conv_reason: 3
  newton =   3 [     173] linear =     3 [       173] cuts =  0 [   0]
  --> SNES Linear/Non-Linear Iterations = 3 / 3
  --> SNES Residual: 0.451151E-16 0.451151E-18 0.223820E-16
  --> max change: dpmx=   5.1643E+02

 --> write tecplot output file: 1D_vsat_flow_pulse_2layer-001.tec
      0.01 Seconds to write to Tecplot file(s)

== RICHARDS FLOW ===============================================================
  0 2r: 4.29E-08 2x: 0.00E+00 2u: 0.00E+00 ir: 6.74E-09 iu: 0.00E+00 rsn:   0
  1 2r: 1.53E-09 2x: 7.96E+05 2u: 7.19E+03 ir: 7.67E-10 iu: 1.51E+03 rsn:   0
  2 2r: 2.71E-12 2x: 7.96E+05 2u: 2.64E+02 ir: 1.98E-12 iu: 6.32E+01 rsn:   0
  3 2r: 5.78E-17 2x: 7.96E+05 2u: 3.70E-01 ir: 2.70E-17 iu: 1.03E-01 rsn: rtol

 Step     43 Time=  5.50000E-01 Dt=  5.00000E-02 [y] conv_reason: 3
  newton =   3 [     176] linear =     3 [       176] cuts =  0 [   0]
  --> SNES Linear/Non-Linear Iterations = 3 / 3
  --> SNES Residual: 0.577982E-16 0.577982E-18 0.269587E-16
  --> max change: dpmx=   1.5734E+03

== RICHARDS FLOW ===============================================================
  0 2r: 3.70E-08 2x: 0.00E+00 2u: 0.00E+00 ir: 6.59E-09 iu: 0.00E+00 rsn:   0
  1 2r: 1.12E-09 2x: 7.92E+05 2u: 6.46E+03 ir: 5.97E-10 iu: 1.34E+03 rsn:   0
  2 2r: 1.60E-12 2x: 7.92E+05 2u: 1.98E+02 ir: 1.35E-12 iu: 4.66E+01 rsn:   0
  3 2r: 5.54E-17 2x: 7.92E+05 2u: 1.95E-01 ir: 3.15E-17 iu: 5.36E-02 rsn: rtol

 Step     44 Time=  6.00000E-01 Dt=  5.00000E-02 [y] conv_reason: 3
  newton =   3 [     179] linear =     3 [       179] cuts =  0 [   0]
  --> SNES Linear/Non-Linear Iterations = 3 / 3
  --> SNES Residual: 0.553911E-16 0.553911E-18 0.314829E-16
  --> max change: dpmx=   1.3840E+03

== RICHARDS FLOW ===============================================================
  0 2r: 3.37E-08 2x: 0.00E+00 2u: 0.00E+00 ir: 6.25E-09 iu: 0.00E+00 rsn:   0
  1 2r: 8.82E-10 2x: 7.89E+05 2u: 5.86E+03 ir: 4.64E-10 iu: 1.19E+03 rsn:   0
  2 2r: 1.01E-12 2x: 7.88E+05 2u: 1.54E+02 ir: 8.89E-13 iu: 3.54E+01 rsn:   0
  3 2r: 4.37E-17 2x: 7.88E+05 2u: 1.10E-01 ir: 1.79E-17 iu: 2.96E-02 rsn: rtol

 Step     45 Time=  6.50000E-01 Dt=  5.00000E-02 [y] conv_reason: 3
  newton =   3 [     182] linear =     3 [       182] cuts =  0 [   0]
  --> SNES Linear/Non-Linear Iterations = 3 / 3
  --> SNES Residual: 0.436703E-16 0.436703E-18 0.178728E-16
  --> max change: dpmx=   1.2304E+03

== RICHARDS FLOW ===============================================================
  0 2r: 3.10E-08 2x: 0.00E+00 2u: 0.00E+00 ir: 5.84E-09 iu: 0.00E+00 rsn:   0
  1 2r: 7.30E-10 2x: 7.85E+05 2u: 5.34E+03 ir: 3.63E-10 iu: 1.08E+03 rsn:   0
  2 2r: 6.58E-13 2x: 7.85E+05 2u: 1.23E+02 ir: 5.81E-13 iu: 2.75E+01 rsn:   0
  3 2r: 3.74E-17 2x: 7.85E+05 2u: 6.57E-02 ir: 2.33E-17 iu: 1.72E-02 rsn: rtol

 Step     46 Time=  7.00000E-01 Dt=  5.00000E-02 [y] conv_reason: 3
  newton =   3 [     185] linear =     3 [       185] cuts =  0 [   0]
  --> SNES Linear/Non-Linear Iterations = 3 / 3
  --> SNES Residual: 0.373696E-16 0.373696E-18 0.233303E-16
  --> max change: dpmx=   1.1036E+03

== RICHARDS FLOW ===============================================================
  0 2r: 2.83E-08 2x: 0.00E+00 2u: 0.00E+00 ir: 5.43E-09 iu: 0.00E+00 rsn:   0
  1 2r: 6.13E-10 2x: 7.82E+05 2u: 4.89E+03 ir: 2.87E-10 iu: 9.75E+02 rsn:   0
  2 2r: 4.48E-13 2x: 7.82E+05 2u: 9.94E+01 ir: 3.84E-13 iu: 2.17E+01 rsn:   0
  3 2r: 3.89E-17 2x: 7.82E+05 2u: 4.15E-02 ir: 2.30E-17 iu: 1.04E-02 rsn: rtol

 Step     47 Time=  7.50000E-01 Dt=  5.00000E-02 [y] conv_reason: 3
  newton =   3 [     188] linear =     3 [       188] cuts =  0 [   0]
  --> SNES Linear/Non-Linear Iterations = 3 / 3
  --> SNES Residual: 0.389206E-16 0.389206E-18 0.229525E-16
  --> max change: dpmx=   9.9723E+02

== RICHARDS FLOW ===============================================================
  0 2r: 2.59E-08 2x: 0.00E+00 2u: 0.00E+00 ir: 5.04E-09 iu: 0.00E+00 rsn:   0
  1 2r: 5.15E-10 2x: 7.79E+05 2u: 4.51E+03 ir: 2.30E-10 iu: 8.90E+02 rsn:   0
  2 2r: 3.14E-13 2x: 7.79E+05 2u: 8.19E+01 ir: 2.58E-13 iu: 1.75E+01 rsn:   0
  3 2r: 5.88E-17 2x: 7.79E+05 2u: 2.74E-02 ir: 2.79E-17 iu: 6.56E-03 rsn: rtol

 Step     48 Time=  8.00000E-01 Dt=  5.00000E-02 [y] conv_reason: 3
  newton =   3 [     191] linear =     3 [       191] cuts =  0 [   0]
  --> SNES Linear/Non-Linear Iterations = 3 / 3
  --> SNES Residual: 0.587654E-16 0.587654E-18 0.279277E-16
  --> max change: dpmx=   9.0700E+02

== RICHARDS FLOW ===============================================================
  0 2r: 2.36E-08 2x: 0.00E+00 2u: 0.00E+00 ir: 4.68E-09 iu: 0.00E+00 rsn:   0
  1 2r: 4.34E-10 2x: 7.77E+05 2u: 4.17E+03 ir: 1.86E-10 iu: 8.15E+02 rsn:   0
  2 2r: 2.24E-13 2x: 7.77E+05 2u: 6.84E+01 ir: 1.77E-13 iu: 1.43E+01 rsn:   0
  3 2r: 6.69E-17 2x: 7.77E+05 2u: 1.88E-02 ir: 2.99E-17 iu: 4.25E-03 rsn: rtol

 Step     49 Time=  8.50000E-01 Dt=  5.00000E-02 [y] conv_reason: 3
  newton =   3 [     194] linear =     3 [       194] cuts =  0 [   0]
  --> SNES Linear/Non-Linear Iterations = 3 / 3
  --> SNES Residual: 0.668931E-16 0.668931E-18 0.299322E-16
  --> max change: dpmx=   8.2961E+02

== RICHARDS FLOW ===============================================================
  0 2r: 2.17E-08 2x: 0.00E+00 2u: 0.00E+00 ir: 4.36E-09 iu: 0.00E+00 rsn:   0
  1 2r: 3.66E-10 2x: 7.74E+05 2u: 3.88E+03 ir: 1.52E-10 iu: 7.51E+02 rsn:   0
  2 2r: 1.62E-13 2x: 7.74E+05 2u: 5.78E+01 ir: 1.23E-13 iu: 1.18E+01 rsn:   0
  3 2r: 5.44E-17 2x: 7.74E+05 2u: 1.33E-02 ir: 2.67E-17 iu: 2.84E-03 rsn: rtol

 Step     50 Time=  9.00000E-01 Dt=  5.00000E-02 [y] conv_reason: 3
  newton =   3 [     197] linear =     3 [       197] cuts =  0 [   0]
  --> SNES Linear/Non-Linear Iterations = 3 / 3
  --> SNES Residual: 0.544340E-16 0.544340E-18 0.266752E-16
  --> max change: dpmx=   7.6263E+02

== RICHARDS FLOW ===============================================================
  0 2r: 1.99E-08 2x: 0.00E+00 2u: 0.00E+00 ir: 4.06E-09 iu: 0.00E+00 rsn:   0
  1 2r: 3.11E-10 2x: 7.72E+05 2u: 3.62E+03 ir: 1.26E-10 iu: 6.94E+02 rsn:   0
  2 2r: 1.18E-13 2x: 7.72E+05 2u: 4.93E+01 ir: 8.75E-14 iu: 9.84E+00 rsn:   0
  3 2r: 3.42E-17 2x: 7.72E+05 2u: 9.66E-03 ir: 1.88E-17 iu: 1.94E-03 rsn: rtol

 Step     51 Time=  9.50000E-01 Dt=  5.00000E-02 [y] conv_reason: 3
  newton =   3 [     200] linear =     3 [       200] cuts =  0 [   0]
  --> SNES Linear/Non-Linear Iterations = 3 / 3
  --> SNES Residual: 0.341649E-16 0.341649E-18 0.187605E-16
  --> max change: dpmx=   7.0421E+02

== RICHARDS FLOW ===============================================================
  0 2r: 1.83E-08 2x: 0.00E+00 2u: 0.00E+00 ir: 3.80E-09 iu: 0.00E+00 rsn:   0
  1 2r: 2.65E-10 2x: 7.70E+05 2u: 3.39E+03 ir: 1.05E-10 iu: 6.45E+02 rsn:   0
  2 2r: 8.78E-14 2x: 7.70E+05 2u: 4.25E+01 ir: 6.33E-14 iu: 8.30E+00 rsn:   0
  3 2r: 4.27E-17 2x: 7.70E+05 2u: 7.16E-03 ir: 2.30E-17 iu: 1.35E-03 rsn: rtol

 Step     52 Time=  1.00000E+00 Dt=  5.00000E-02 [y] conv_reason: 3
  newton =   3 [     203] linear =     3 [       203] cuts =  0 [   0]
  --> SNES Linear/Non-Linear Iterations = 3 / 3
  --> SNES Residual: 0.426670E-16 0.426670E-18 0.230435E-16
  --> max change: dpmx=   6.5290E+02

 --> write tecplot output file: 1D_vsat_flow_pulse_2layer-002.tec
      0.01 Seconds to write to Tecplot file(s)

== RICHARDS FLOW ===============================================================
  0 2r: 1.70E-08 2x: 0.00E+00 2u: 0.00E+00 ir: 3.56E-09 iu: 0.00E+00 rsn:   0
  1 2r: 2.28E-10 2x: 7.68E+05 2u: 3.18E+03 ir: 8.90E-11 iu: 6.00E+02 rsn:   0
  2 2r: 6.59E-14 2x: 7.68E+05 2u: 3.69E+01 ir: 4.65E-14 iu: 7.06E+00 rsn:   0
  3 2r: 4.14E-17 2x: 7.68E+05 2u: 5.41E-03 ir: 2.47E-17 iu: 1.04E-03 rsn: rtol

 Step     53 Time=  1.05000E+00 Dt=  5.00000E-02 [y] conv_reason: 3
  newton =   3 [     206] linear =     3 [       206] cuts =  0 [   0]
  --> SNES Linear/Non-Linear Iterations = 3 / 3
  --> SNES Residual: 0.414306E-16 0.414306E-18 0.247012E-16
  --> max change: dpmx=   6.0756E+02

== RICHARDS FLOW ===============================================================
  0 2r: 1.57E-08 2x: 0.00E+00 2u: 0.00E+00 ir: 3.34E-09 iu: 0.00E+00 rsn:   0
  1 2r: 1.97E-10 2x: 7.66E+05 2u: 3.00E+03 ir: 7.57E-11 iu: 5.61E+02 rsn:   0
  2 2r: 5.00E-14 2x: 7.66E+05 2u: 3.23E+01 ir: 3.47E-14 iu: 6.06E+00 rsn:   0
  3 2r: 4.48E-17 2x: 7.66E+05 2u: 4.15E-03 ir: 2.55E-17 iu: 8.49E-04 rsn: rtol

 Step     54 Time=  1.10000E+00 Dt=  5.00000E-02 [y] conv_reason: 3
  newton =   3 [     209] linear =     3 [       209] cuts =  0 [   0]
  --> SNES Linear/Non-Linear Iterations = 3 / 3
  --> SNES Residual: 0.447606E-16 0.447606E-18 0.254624E-16
  --> max change: dpmx=   5.6726E+02

== RICHARDS FLOW ===============================================================
  0 2r: 1.47E-08 2x: 0.00E+00 2u: 0.00E+00 ir: 3.15E-09 iu: 0.00E+00 rsn:   0
  1 2r: 1.71E-10 2x: 7.64E+05 2u: 2.83E+03 ir: 6.50E-11 iu: 5.26E+02 rsn:   0
  2 2r: 3.84E-14 2x: 7.64E+05 2u: 2.84E+01 ir: 2.62E-14 iu: 5.23E+00 rsn:   0
  3 2r: 4.71E-17 2x: 7.64E+05 2u: 3.23E-03 ir: 2.69E-17 iu: 6.93E-04 rsn: rtol

 Step     55 Time=  1.15000E+00 Dt=  5.00000E-02 [y] conv_reason: 3
  newton =   3 [     212] linear =     3 [       212] cuts =  0 [   0]
  --> SNES Linear/Non-Linear Iterations = 3 / 3
  --> SNES Residual: 0.471098E-16 0.471098E-18 0.269164E-16
  --> max change: dpmx=   5.3128E+02

== RICHARDS FLOW ===============================================================
  0 2r: 1.37E-08 2x: 0.00E+00 2u: 0.00E+00 ir: 2.97E-09 iu: 0.00E+00 rsn:   0
  1 2r: 1.50E-10 2x: 7.62E+05 2u: 2.69E+03 ir: 5.62E-11 iu: 4.94E+02 rsn:   0
  2 2r: 2.98E-14 2x: 7.62E+05 2u: 2.52E+01 ir: 2.01E-14 iu: 4.55E+00 rsn:   0
  3 2r: 4.22E-17 2x: 7.62E+05 2u: 2.55E-03 ir: 2.41E-17 iu: 5.69E-04 rsn: rtol

 Step     56 Time=  1.20000E+00 Dt=  5.00000E-02 [y] conv_reason: 3
  newton =   3 [     215] linear =     3 [       215] cuts =  0 [   0]
  --> SNES Linear/Non-Linear Iterations = 3 / 3
  --> SNES Residual: 0.421700E-16 0.421700E-18 0.240919E-16
  --> max change: dpmx=   4.9900E+02

== RICHARDS FLOW ===============================================================
  0 2r: 1.28E-08 2x: 0.00E+00 2u: 0.00E+00 ir: 2.81E-09 iu: 0.00E+00 rsn:   0
  1 2r: 1.32E-10 2x: 7.61E+05 2u: 2.55E+03 ir: 4.89E-11 iu: 4.66E+02 rsn:   0
  2 2r: 2.34E-14 2x: 7.61E+05 2u: 2.24E+01 ir: 1.56E-14 iu: 3.99E+00 rsn:   0
  3 2r: 4.73E-17 2x: 7.61E+05 2u: 2.03E-03 ir: 2.69E-17 iu: 4.70E-04 rsn: rtol

 Step     57 Time=  1.25000E+00 Dt=  5.00000E-02 [y] conv_reason: 3
  newton =   3 [     218] linear =     3 [       218] cuts =  0 [   0]
  --> SNES Linear/Non-Linear Iterations = 3 / 3
  --> SNES Residual: 0.473196E-16 0.473196E-18 0.269115E-16
  --> max change: dpmx=   4.6992E+02

== RICHARDS FLOW ===============================================================
  0 2r: 1.20E-08 2x: 0.00E+00 2u: 0.00E+00 ir: 2.67E-09 iu: 0.00E+00 rsn:   0
  1 2r: 1.17E-10 2x: 7.59E+05 2u: 2.43E+03 ir: 4.28E-11 iu: 4.40E+02 rsn:   0
  2 2r: 1.85E-14 2x: 7.59E+05 2u: 2.01E+01 ir: 1.22E-14 iu: 3.51E+00 rsn:   0
  3 2r: 4.79E-17 2x: 7.59E+05 2u: 1.64E-03 ir: 2.37E-17 iu: 3.90E-04 rsn: rtol

 Step     58 Time=  1.30000E+00 Dt=  5.00000E-02 [y] conv_reason: 3
  newton =   3 [     221] linear =     3 [       221] cuts =  0 [   0]
  --> SNES Linear/Non-Linear Iterations = 3 / 3
  --> SNES Residual: 0.478893E-16 0.478893E-18 0.236657E-16
  --> max change: dpmx=   4.4362E+02

== RICHARDS FLOW ===============================================================
  0 2r: 1.13E-08 2x: 0.00E+00 2u: 0.00E+00 ir: 2.53E-09 iu: 0.00E+00 rsn:   0
  1 2r: 1.04E-10 2x: 7.58E+05 2u: 2.31E+03 ir: 3.76E-11 iu: 4.17E+02 rsn:   0
  2 2r: 1.48E-14 2x: 7.58E+05 2u: 1.81E+01 ir: 9.66E-15 iu: 3.11E+00 rsn:   0
  3 2r: 4.66E-17 2x: 7.58E+05 2u: 1.33E-03 ir: 2.63E-17 iu: 3.26E-04 rsn: rtol

 Step     59 Time=  1.35000E+00 Dt=  5.00000E-02 [y] conv_reason: 3
  newton =   3 [     224] linear =     3 [       224] cuts =  0 [   0]
  --> SNES Linear/Non-Linear Iterations = 3 / 3
  --> SNES Residual: 0.465622E-16 0.465622E-18 0.262843E-16
  --> max change: dpmx=   4.1975E+02

== RICHARDS FLOW ===============================================================
  0 2r: 1.07E-08 2x: 0.00E+00 2u: 0.00E+00 ir: 2.41E-09 iu: 0.00E+00 rsn:   0
  1 2r: 9.28E-11 2x: 7.56E+05 2u: 2.21E+03 ir: 3.33E-11 iu: 3.95E+02 rsn:   0
  2 2r: 1.19E-14 2x: 7.56E+05 2u: 1.64E+01 ir: 7.72E-15 iu: 2.76E+00 rsn:   0
  3 2r: 4.57E-17 2x: 7.56E+05 2u: 1.10E-03 ir: 2.47E-17 iu: 2.74E-04 rsn: rtol

 Step     60 Time=  1.40000E+00 Dt=  5.00000E-02 [y] conv_reason: 3
  newton =   3 [     227] linear =     3 [       227] cuts =  0 [   0]
  --> SNES Linear/Non-Linear Iterations = 3 / 3
  --> SNES Residual: 0.456664E-16 0.456664E-18 0.247037E-16
  --> max change: dpmx=   3.9802E+02

== RICHARDS FLOW ===============================================================
  0 2r: 1.01E-08 2x: 0.00E+00 2u: 0.00E+00 ir: 2.29E-09 iu: 0.00E+00 rsn:   0
  1 2r: 8.33E-11 2x: 7.55E+05 2u: 2.12E+03 ir: 2.96E-11 iu: 3.76E+02 rsn:   0
  2 2r: 9.66E-15 2x: 7.55E+05 2u: 1.49E+01 ir: 6.23E-15 iu: 2.47E+00 rsn:   0
  3 2r: 5.72E-17 2x: 7.55E+05 2u: 9.06E-04 ir: 2.51E-17 iu: 2.32E-04 rsn: rtol

 Step     61 Time=  1.45000E+00 Dt=  5.00000E-02 [y] conv_reason: 3
  newton =   3 [     230] linear =     3 [       230] cuts =  0 [   0]
  --> SNES Linear/Non-Linear Iterations = 3 / 3
  --> SNES Residual: 0.572327E-16 0.572327E-18 0.251211E-16
  --> max change: dpmx=   3.7816E+02

== RICHARDS FLOW ===============================================================
  0 2r: 9.60E-09 2x: 0.00E+00 2u: 0.00E+00 ir: 2.19E-09 iu: 0.00E+00 rsn:   0
  1 2r: 7.51E-11 2x: 7.54E+05 2u: 2.03E+03 ir: 2.65E-11 iu: 3.58E+02 rsn:   0
  2 2r: 7.90E-15 2x: 7.54E+05 2u: 1.35E+01 ir: 5.07E-15 iu: 2.22E+00 rsn:   0
  3 2r: 3.06E-17 2x: 7.54E+05 2u: 7.55E-04 ir: 1.60E-17 iu: 1.97E-04 rsn: rtol

 Step     62 Time=  1.50000E+00 Dt=  5.00000E-02 [y] conv_reason: 3
  newton =   3 [     233] linear =     3 [       233] cuts =  0 [   0]
  --> SNES Linear/Non-Linear Iterations = 3 / 3
  --> SNES Residual: 0.306190E-16 0.306190E-18 0.160373E-16
  --> max change: dpmx=   3.5998E+02

== RICHARDS FLOW ===============================================================
  0 2r: 9.12E-09 2x: 0.00E+00 2u: 0.00E+00 ir: 2.09E-09 iu: 0.00E+00 rsn:   0
  1 2r: 6.80E-11 2x: 7.53E+05 2u: 1.95E+03 ir: 2.37E-11 iu: 3.41E+02 rsn:   0
  2 2r: 6.50E-15 2x: 7.53E+05 2u: 1.24E+01 ir: 4.15E-15 iu: 2.00E+00 rsn:   0
  3 2r: 4.91E-17 2x: 7.53E+05 2u: 6.33E-04 ir: 2.75E-17 iu: 1.68E-04 rsn: rtol

 Step     63 Time=  1.55000E+00 Dt=  5.00000E-02 [y] conv_reason: 3
  newton =   3 [     236] linear =     3 [       236] cuts =  0 [   0]
  --> SNES Linear/Non-Linear Iterations = 3 / 3
  --> SNES Residual: 0.490610E-16 0.490610E-18 0.275279E-16
  --> max change: dpmx=   3.4328E+02

== RICHARDS FLOW ===============================================================
  0 2r: 8.67E-09 2x: 0.00E+00 2u: 0.00E+00 ir: 2.00E-09 iu: 0.00E+00 rsn:   0
  1 2r: 6.17E-11 2x: 7.51E+05 2u: 1.87E+03 ir: 2.14E-11 iu: 3.26E+02 rsn:   0
  2 2r: 5.39E-15 2x: 7.51E+05 2u: 1.14E+01 ir: 3.43E-15 iu: 1.81E+00 rsn:   0
  3 2r: 5.14E-17 2x: 7.51E+05 2u: 5.34E-04 ir: 2.91E-17 iu: 1.44E-04 rsn: rtol

 Step     64 Time=  1.60000E+00 Dt=  5.00000E-02 [y] conv_reason: 3
  newton =   3 [     239] linear =     3 [       239] cuts =  0 [   0]
  --> SNES Linear/Non-Linear Iterations = 3 / 3
  --> SNES Residual: 0.513653E-16 0.513653E-18 0.291070E-16
  --> max change: dpmx=   3.2790E+02

== RICHARDS FLOW ===============================================================
  0 2r: 8.27E-09 2x: 0.00E+00 2u: 0.00E+00 ir: 1.92E-09 iu: 0.00E+00 rsn:   0
  1 2r: 5.62E-11 2x: 7.50E+05 2u: 1.80E+03 ir: 1.93E-11 iu: 3.12E+02 rsn:   0
  2 2r: 4.50E-15 2x: 7.50E+05 2u: 1.05E+01 ir: 2.85E-15 iu: 1.64E+00 rsn:   0
  3 2r: 4.26E-17 2x: 7.50E+05 2u: 4.53E-04 ir: 2.69E-17 iu: 1.24E-04 rsn: rtol

 Step     65 Time=  1.65000E+00 Dt=  5.00000E-02 [y] conv_reason: 3
  newton =   3 [     242] linear =     3 [       242] cuts =  0 [   0]
  --> SNES Linear/Non-Linear Iterations = 3 / 3
  --> SNES Residual: 0.426286E-16 0.426286E-18 0.268708E-16
  --> max change: dpmx=   3.1370E+02

== RICHARDS FLOW ===============================================================
  0 2r: 7.89E-09 2x: 0.00E+00 2u: 0.00E+00 ir: 1.84E-09 iu: 0.00E+00 rsn:   0
  1 2r: 5.14E-11 2x: 7.49E+05 2u: 1.74E+03 ir: 1.75E-11 iu: 2.99E+02 rsn:   0
  2 2r: 3.77E-15 2x: 7.49E+05 2u: 9.66E+00 ir: 2.38E-15 iu: 1.49E+00 rsn:   0
  3 2r: 5.32E-17 2x: 7.49E+05 2u: 3.87E-04 ir: 2.78E-17 iu: 1.07E-04 rsn: rtol

 Step     66 Time=  1.70000E+00 Dt=  5.00000E-02 [y] conv_reason: 3
  newton =   3 [     245] linear =     3 [       245] cuts =  0 [   0]
  --> SNES Linear/Non-Linear Iterations = 3 / 3
  --> SNES Residual: 0.532103E-16 0.532103E-18 0.278471E-16
  --> max change: dpmx=   3.0056E+02

== RICHARDS FLOW ===============================================================
  0 2r: 7.55E-09 2x: 0.00E+00 2u: 0.00E+00 ir: 1.77E-09 iu: 0.00E+00 rsn:   0
  1 2r: 4.71E-11 2x: 7.48E+05 2u: 1.68E+03 ir: 1.60E-11 iu: 2.87E+02 rsn:   0
  2 2r: 3.18E-15 2x: 7.48E+05 2u: 8.94E+00 ir: 2.01E-15 iu: 1.36E+00 rsn:   0
  3 2r: 5.41E-17 2x: 7.48E+05 2u: 3.32E-04 ir: 2.95E-17 iu: 9.25E-05 rsn: rtol

 Step     67 Time=  1.75000E+00 Dt=  5.00000E-02 [y] conv_reason: 3
  newton =   3 [     248] linear =     3 [       248] cuts =  0 [   0]
  --> SNES Linear/Non-Linear Iterations = 3 / 3
  --> SNES Residual: 0.541435E-16 0.541435E-18 0.294759E-16
  --> max change: dpmx=   2.8838E+02

== RICHARDS FLOW ===============================================================
  0 2r: 7.22E-09 2x: 0.00E+00 2u: 0.00E+00 ir: 1.70E-09 iu: 0.00E+00 rsn:   0
  1 2r: 4.33E-11 2x: 7.47E+05 2u: 1.62E+03 ir: 1.46E-11 iu: 2.76E+02 rsn:   0
  2 2r: 2.70E-15 2x: 7.47E+05 2u: 8.30E+00 ir: 1.70E-15 iu: 1.25E+00 rsn:   0
  3 2r: 5.98E-17 2x: 7.47E+05 2u: 2.86E-04 ir: 2.64E-17 iu: 8.04E-05 rsn: rtol

 Step     68 Time=  1.80000E+00 Dt=  5.00000E-02 [y] conv_reason: 3
  newton =   3 [     251] linear =     3 [       251] cuts =  0 [   0]
  --> SNES Linear/Non-Linear Iterations = 3 / 3
  --> SNES Residual: 0.598354E-16 0.598354E-18 0.264475E-16
  --> max change: dpmx=   2.7706E+02

== RICHARDS FLOW ===============================================================
  0 2r: 6.92E-09 2x: 0.00E+00 2u: 0.00E+00 ir: 1.64E-09 iu: 0.00E+00 rsn:   0
  1 2r: 3.99E-11 2x: 7.46E+05 2u: 1.56E+03 ir: 1.33E-11 iu: 2.65E+02 rsn:   0
  2 2r: 2.30E-15 2x: 7.46E+05 2u: 7.72E+00 ir: 1.44E-15 iu: 1.15E+00 rsn:   0
  3 2r: 3.69E-17 2x: 7.46E+05 2u: 2.47E-04 ir: 1.61E-17 iu: 7.02E-05 rsn: rtol

 Step     69 Time=  1.85000E+00 Dt=  5.00000E-02 [y] conv_reason: 3
  newton =   3 [     254] linear =     3 [       254] cuts =  0 [   0]
  --> SNES Linear/Non-Linear Iterations = 3 / 3
  --> SNES Residual: 0.369497E-16 0.369497E-18 0.161466E-16
  --> max change: dpmx=   2.6652E+02

== RICHARDS FLOW ===============================================================
  0 2r: 6.65E-09 2x: 0.00E+00 2u: 0.00E+00 ir: 1.58E-09 iu: 0.00E+00 rsn:   0
  1 2r: 3.69E-11 2x: 7.45E+05 2u: 1.51E+03 ir: 1.22E-11 iu: 2.56E+02 rsn:   0
  2 2r: 1.97E-15 2x: 7.45E+05 2u: 7.19E+00 ir: 1.23E-15 iu: 1.06E+00 rsn:   0
  3 2r: 4.53E-17 2x: 7.45E+05 2u: 2.15E-04 ir: 2.50E-17 iu: 6.14E-05 rsn: rtol

 Step     70 Time=  1.90000E+00 Dt=  5.00000E-02 [y] conv_reason: 3
  newton =   3 [     257] linear =     3 [       257] cuts =  0 [   0]
  --> SNES Linear/Non-Linear Iterations = 3 / 3
  --> SNES Residual: 0.452567E-16 0.452567E-18 0.249936E-16
  --> max change: dpmx=   2.5668E+02

== RICHARDS FLOW ===============================================================
  0 2r: 6.39E-09 2x: 0.00E+00 2u: 0.00E+00 ir: 1.52E-09 iu: 0.00E+00 rsn:   0
  1 2r: 3.41E-11 2x: 7.44E+05 2u: 1.47E+03 ir: 1.13E-11 iu: 2.47E+02 rsn:   0
  2 2r: 1.69E-15 2x: 7.44E+05 2u: 6.72E+00 ir: 1.06E-15 iu: 9.79E-01 rsn:   0
  3 2r: 5.03E-17 2x: 7.44E+05 2u: 1.87E-04 ir: 2.61E-17 iu: 5.39E-05 rsn: rtol

 Step     71 Time=  1.95000E+00 Dt=  5.00000E-02 [y] conv_reason: 3
  newton =   3 [     260] linear =     3 [       260] cuts =  0 [   0]
  --> SNES Linear/Non-Linear Iterations = 3 / 3
  --> SNES Residual: 0.502870E-16 0.502870E-18 0.261049E-16
  --> max change: dpmx=   2.4749E+02

== RICHARDS FLOW ===============================================================
  0 2r: 6.14E-09 2x: 0.00E+00 2u: 0.00E+00 ir: 1.47E-09 iu: 0.00E+00 rsn:   0
  1 2r: 3.17E-11 2x: 7.44E+05 2u: 1.42E+03 ir: 1.04E-11 iu: 2.38E+02 rsn:   0
  2 2r: 1.46E-15 2x: 7.44E+05 2u: 6.29E+00 ir: 9.12E-16 iu: 9.08E-01 rsn:   0
  3 2r: 3.34E-17 2x: 7.44E+05 2u: 1.64E-04 ir: 1.79E-17 iu: 4.75E-05 rsn: rtol

 Step     72 Time=  2.00000E+00 Dt=  5.00000E-02 [y] conv_reason: 3
  newton =   3 [     263] linear =     3 [       263] cuts =  0 [   0]
  --> SNES Linear/Non-Linear Iterations = 3 / 3
  --> SNES Residual: 0.334167E-16 0.334167E-18 0.179395E-16
  --> max change: dpmx=   2.3889E+02

 --> write tecplot output file: 1D_vsat_flow_pulse_2layer-003.tec
      0.03 Seconds to write to Tecplot file(s)

== RICHARDS FLOW ===============================================================
  0 2r: 5.92E-09 2x: 0.00E+00 2u: 0.00E+00 ir: 1.42E-09 iu: 0.00E+00 rsn:   0
  1 2r: 2.94E-11 2x: 7.43E+05 2u: 1.38E+03 ir: 9.61E-12 iu: 2.30E+02 rsn:   0
  2 2r: 1.26E-15 2x: 7.43E+05 2u: 5.89E+00 ir: 7.90E-16 iu: 8.57E-01 rsn:   0
  3 2r: 4.35E-17 2x: 7.43E+05 2u: 1.44E-04 ir: 2.55E-17 iu: 4.20E-05 rsn: rtol

 Step     73 Time=  2.05000E+00 Dt=  5.00000E-02 [y] conv_reason: 3
  newton =   3 [     266] linear =     3 [       266] cuts =  0 [   0]
  --> SNES Linear/Non-Linear Iterations = 3 / 3
  --> SNES Residual: 0.434854E-16 0.434854E-18 0.254601E-16
  --> max change: dpmx=   2.3082E+02

== RICHARDS FLOW ===============================================================
  0 2r: 5.70E-09 2x: 0.00E+00 2u: 0.00E+00 ir: 1.38E-09 iu: 0.00E+00 rsn:   0
  1 2r: 2.74E-11 2x: 7.42E+05 2u: 1.34E+03 ir: 8.90E-12 iu: 2.22E+02 rsn:   0
  2 2r: 1.10E-15 2x: 7.42E+05 2u: 5.54E+00 ir: 6.87E-16 iu: 8.10E-01 rsn:   0
  3 2r: 4.57E-17 2x: 7.42E+05 2u: 1.27E-04 ir: 2.67E-17 iu: 3.73E-05 rsn: rtol

 Step     74 Time=  2.10000E+00 Dt=  5.00000E-02 [y] conv_reason: 3
  newton =   3 [     269] linear =     3 [       269] cuts =  0 [   0]
  --> SNES Linear/Non-Linear Iterations = 3 / 3
  --> SNES Residual: 0.456750E-16 0.456750E-18 0.266640E-16
  --> max change: dpmx=   2.2324E+02

== RICHARDS FLOW ===============================================================
  0 2r: 5.50E-09 2x: 0.00E+00 2u: 0.00E+00 ir: 1.33E-09 iu: 0.00E+00 rsn:   0
  1 2r: 2.56E-11 2x: 7.41E+05 2u: 1.30E+03 ir: 8.26E-12 iu: 2.15E+02 rsn:   0
  2 2r: 9.58E-16 2x: 7.41E+05 2u: 5.21E+00 ir: 5.99E-16 iu: 7.66E-01 rsn:   0
  3 2r: 4.67E-17 2x: 7.41E+05 2u: 1.12E-04 ir: 2.55E-17 iu: 3.32E-05 rsn: rtol

 Step     75 Time=  2.15000E+00 Dt=  5.00000E-02 [y] conv_reason: 3
  newton =   3 [     272] linear =     3 [       272] cuts =  0 [   0]
  --> SNES Linear/Non-Linear Iterations = 3 / 3
  --> SNES Residual: 0.467379E-16 0.467379E-18 0.254944E-16
  --> max change: dpmx=   2.1611E+02

== RICHARDS FLOW ===============================================================
  0 2r: 5.31E-09 2x: 0.00E+00 2u: 0.00E+00 ir: 1.29E-09 iu: 0.00E+00 rsn:   0
  1 2r: 2.39E-11 2x: 7.40E+05 2u: 1.27E+03 ir: 7.69E-12 iu: 2.09E+02 rsn:   0
  2 2r: 8.39E-16 2x: 7.40E+05 2u: 4.91E+00 ir: 5.24E-16 iu: 7.26E-01 rsn:   0
  3 2r: 5.58E-17 2x: 7.40E+05 2u: 9.93E-05 ir: 2.43E-17 iu: 2.96E-05 rsn: stol

 Step     76 Time=  2.20000E+00 Dt=  5.00000E-02 [y] conv_reason: 4
  newton =   3 [     275] linear =     3 [       275] cuts =  0 [   0]
  --> SNES Linear/Non-Linear Iterations = 3 / 3
  --> SNES Residual: 0.557603E-16 0.557603E-18 0.242832E-16
  --> max change: dpmx=   2.0939E+02

== RICHARDS FLOW ===============================================================
  0 2r: 5.14E-09 2x: 0.00E+00 2u: 0.00E+00 ir: 1.25E-09 iu: 0.00E+00 rsn:   0
  1 2r: 2.24E-11 2x: 7.40E+05 2u: 1.24E+03 ir: 7.16E-12 iu: 2.02E+02 rsn:   0
  2 2r: 7.36E-16 2x: 7.40E+05 2u: 4.63E+00 ir: 4.61E-16 iu: 6.88E-01 rsn:   0
  3 2r: 4.21E-17 2x: 7.40E+05 2u: 8.82E-05 ir: 2.50E-17 iu: 2.65E-05 rsn: rtol

 Step     77 Time=  2.25000E+00 Dt=  5.00000E-02 [y] conv_reason: 3
  newton =   3 [     278] linear =     3 [       278] cuts =  0 [   0]
  --> SNES Linear/Non-Linear Iterations = 3 / 3
  --> SNES Residual: 0.420801E-16 0.420801E-18 0.249735E-16
  --> max change: dpmx=   2.0305E+02

== RICHARDS FLOW ===============================================================
  0 2r: 4.97E-09 2x: 0.00E+00 2u: 0.00E+00 ir: 1.21E-09 iu: 0.00E+00 rsn:   0
  1 2r: 2.10E-11 2x: 7.39E+05 2u: 1.20E+03 ir: 6.69E-12 iu: 1.96E+02 rsn:   0
  2 2r: 6.50E-16 2x: 7.39E+05 2u: 4.38E+00 ir: 4.06E-16 iu: 6.53E-01 rsn:   0
  3 2r: 4.28E-17 2x: 7.39E+05 2u: 7.86E-05 ir: 2.50E-17 iu: 2.37E-05 rsn: rtol

 Step     78 Time=  2.30000E+00 Dt=  5.00000E-02 [y] conv_reason: 3
  newton =   3 [     281] linear =     3 [       281] cuts =  0 [   0]
  --> SNES Linear/Non-Linear Iterations = 3 / 3
  --> SNES Residual: 0.427958E-16 0.427958E-18 0.250233E-16
  --> max change: dpmx=   1.9706E+02

== RICHARDS FLOW ===============================================================
  0 2r: 4.81E-09 2x: 0.00E+00 2u: 0.00E+00 ir: 1.18E-09 iu: 0.00E+00 rsn:   0
  1 2r: 1.98E-11 2x: 7.38E+05 2u: 1.17E+03 ir: 6.25E-12 iu: 1.91E+02 rsn:   0
  2 2r: 5.75E-16 2x: 7.38E+05 2u: 4.14E+00 ir: 3.59E-16 iu: 6.20E-01 rsn:   0
  3 2r: 5.14E-17 2x: 7.38E+05 2u: 7.03E-05 ir: 2.66E-17 iu: 2.13E-05 rsn: stol

 Step     79 Time=  2.35000E+00 Dt=  5.00000E-02 [y] conv_reason: 4
  newton =   3 [     284] linear =     3 [       284] cuts =  0 [   0]
  --> SNES Linear/Non-Linear Iterations = 3 / 3
  --> SNES Residual: 0.513851E-16 0.513851E-18 0.266390E-16
  --> max change: dpmx=   1.9139E+02

== RICHARDS FLOW ===============================================================
  0 2r: 4.66E-09 2x: 0.00E+00 2u: 0.00E+00 ir: 1.14E-09 iu: 0.00E+00 rsn:   0
  1 2r: 1.86E-11 2x: 7.38E+05 2u: 1.14E+03 ir: 5.85E-12 iu: 1.85E+02 rsn:   0
  2 2r: 5.10E-16 2x: 7.38E+05 2u: 3.92E+00 ir: 3.18E-16 iu: 5.90E-01 rsn:   0
  3 2r: 2.75E-17 2x: 7.38E+05 2u: 6.29E-05 ir: 1.74E-17 iu: 1.91E-05 rsn: rtol

 Step     80 Time=  2.40000E+00 Dt=  5.00000E-02 [y] conv_reason: 3
  newton =   3 [     287] linear =     3 [       287] cuts =  0 [   0]
  --> SNES Linear/Non-Linear Iterations = 3 / 3
  --> SNES Residual: 0.274863E-16 0.274863E-18 0.173962E-16
  --> max change: dpmx=   1.8602E+02

== RICHARDS FLOW ===============================================================
  0 2r: 4.52E-09 2x: 0.00E+00 2u: 0.00E+00 ir: 1.11E-09 iu: 0.00E+00 rsn:   0
  1 2r: 1.75E-11 2x: 7.37E+05 2u: 1.12E+03 ir: 5.49E-12 iu: 1.80E+02 rsn:   0
  2 2r: 4.52E-16 2x: 7.37E+05 2u: 3.72E+00 ir: 2.83E-16 iu: 5.62E-01 rsn:   0
  3 2r: 4.73E-17 2x: 7.37E+05 2u: 5.65E-05 ir: 2.39E-17 iu: 1.72E-05 rsn: stol

 Step     81 Time=  2.45000E+00 Dt=  5.00000E-02 [y] conv_reason: 4
  newton =   3 [     290] linear =     3 [       290] cuts =  0 [   0]
  --> SNES Linear/Non-Linear Iterations = 3 / 3
  --> SNES Residual: 0.472720E-16 0.472720E-18 0.238923E-16
  --> max change: dpmx=   1.8093E+02

== RICHARDS FLOW ===============================================================
  0 2r: 4.38E-09 2x: 0.00E+00 2u: 0.00E+00 ir: 1.08E-09 iu: 0.00E+00 rsn:   0
  1 2r: 1.65E-11 2x: 7.36E+05 2u: 1.09E+03 ir: 5.16E-12 iu: 1.76E+02 rsn:   0
  2 2r: 4.03E-16 2x: 7.36E+05 2u: 3.53E+00 ir: 2.52E-16 iu: 5.35E-01 rsn:   0
  3 2r: 4.60E-17 2x: 7.36E+05 2u: 5.08E-05 ir: 2.81E-17 iu: 1.56E-05 rsn: stol

 Step     82 Time=  2.50000E+00 Dt=  5.00000E-02 [y] conv_reason: 4
  newton =   3 [     293] linear =     3 [       293] cuts =  0 [   0]
  --> SNES Linear/Non-Linear Iterations = 3 / 3
  --> SNES Residual: 0.460162E-16 0.460162E-18 0.280927E-16
  --> max change: dpmx=   1.7610E+02

== RICHARDS FLOW ===============================================================
  0 2r: 4.26E-09 2x: 0.00E+00 2u: 0.00E+00 ir: 1.05E-09 iu: 0.00E+00 rsn:   0
  1 2r: 1.56E-11 2x: 7.36E+05 2u: 1.06E+03 ir: 4.85E-12 iu: 1.71E+02 rsn:   0
  2 2r: 3.59E-16 2x: 7.36E+05 2u: 3.36E+00 ir: 2.25E-16 iu: 5.10E-01 rsn:   0
  3 2r: 4.20E-17 2x: 7.36E+05 2u: 4.58E-05 ir: 2.68E-17 iu: 1.41E-05 rsn: rtol

 Step     83 Time=  2.55000E+00 Dt=  5.00000E-02 [y] conv_reason: 3
  newton =   3 [     296] linear =     3 [       296] cuts =  0 [   0]
  --> SNES Linear/Non-Linear Iterations = 3 / 3
  --> SNES Residual: 0.420190E-16 0.420190E-18 0.267936E-16
  --> max change: dpmx=   1.7150E+02

== RICHARDS FLOW ===============================================================
  0 2r: 4.13E-09 2x: 0.00E+00 2u: 0.00E+00 ir: 1.02E-09 iu: 0.00E+00 rsn:   0
  1 2r: 1.48E-11 2x: 7.35E+05 2u: 1.04E+03 ir: 4.57E-12 iu: 1.67E+02 rsn:   0
  2 2r: 3.23E-16 2x: 7.35E+05 2u: 3.20E+00 ir: 2.02E-16 iu: 4.88E-01 rsn:   0
  3 2r: 3.55E-17 2x: 7.35E+05 2u: 4.14E-05 ir: 1.88E-17 iu: 1.28E-05 rsn: rtol

 Step     84 Time=  2.60000E+00 Dt=  5.00000E-02 [y] conv_reason: 3
  newton =   3 [     299] linear =     3 [       299] cuts =  0 [   0]
  --> SNES Linear/Non-Linear Iterations = 3 / 3
  --> SNES Residual: 0.354508E-16 0.354508E-18 0.187840E-16
  --> max change: dpmx=   1.6713E+02

== RICHARDS FLOW ===============================================================
  0 2r: 4.02E-09 2x: 0.00E+00 2u: 0.00E+00 ir: 9.96E-10 iu: 0.00E+00 rsn:   0
  1 2r: 1.40E-11 2x: 7.34E+05 2u: 1.02E+03 ir: 4.31E-12 iu: 1.63E+02 rsn:   0
  2 2r: 2.91E-16 2x: 7.34E+05 2u: 3.05E+00 ir: 1.81E-16 iu: 4.66E-01 rsn:   0
  3 2r: 5.27E-17 2x: 7.34E+05 2u: 3.75E-05 ir: 2.56E-17 iu: 1.16E-05 rsn: stol

 Step     85 Time=  2.65000E+00 Dt=  5.00000E-02 [y] conv_reason: 4
  newton =   3 [     302] linear =     3 [       302] cuts =  0 [   0]
  --> SNES Linear/Non-Linear Iterations = 3 / 3
  --> SNES Residual: 0.526764E-16 0.526764E-18 0.256314E-16
  --> max change: dpmx=   1.6296E+02

== RICHARDS FLOW ===============================================================
  0 2r: 3.91E-09 2x: 0.00E+00 2u: 0.00E+00 ir: 9.70E-10 iu: 0.00E+00 rsn:   0
  1 2r: 1.33E-11 2x: 7.34E+05 2u: 9.94E+02 ir: 4.07E-12 iu: 1.59E+02 rsn:   0
  2 2r: 2.65E-16 2x: 7.34E+05 2u: 2.91E+00 ir: 1.63E-16 iu: 4.46E-01 rsn:   0
  3 2r: 6.58E-17 2x: 7.34E+05 2u: 3.40E-05 ir: 3.18E-17 iu: 1.05E-05 rsn: stol

 Step     86 Time=  2.70000E+00 Dt=  5.00000E-02 [y] conv_reason: 4
  newton =   3 [     305] linear =     3 [       305] cuts =  0 [   0]
  --> SNES Linear/Non-Linear Iterations = 3 / 3
  --> SNES Residual: 0.658066E-16 0.658066E-18 0.317756E-16
  --> max change: dpmx=   1.5898E+02

== RICHARDS FLOW ===============================================================
  0 2r: 3.80E-09 2x: 0.00E+00 2u: 0.00E+00 ir: 9.45E-10 iu: 0.00E+00 rsn:   0
  1 2r: 1.26E-11 2x: 7.33E+05 2u: 9.73E+02 ir: 3.84E-12 iu: 1.55E+02 rsn:   0
  2 2r: 2.34E-16 2x: 7.33E+05 2u: 2.77E+00 ir: 1.47E-16 iu: 4.27E-01 rsn:   0
  3 2r: 5.23E-17 2x: 7.33E+05 2u: 3.09E-05 ir: 2.77E-17 iu: 9.56E-06 rsn: stol

 Step     87 Time=  2.75000E+00 Dt=  5.00000E-02 [y] conv_reason: 4
  newton =   3 [     308] linear =     3 [       308] cuts =  0 [   0]
  --> SNES Linear/Non-Linear Iterations = 3 / 3
  --> SNES Residual: 0.523185E-16 0.523185E-18 0.277179E-16
  --> max change: dpmx=   1.5519E+02

== RICHARDS FLOW ===============================================================
  0 2r: 3.70E-09 2x: 0.00E+00 2u: 0.00E+00 ir: 9.22E-10 iu: 0.00E+00 rsn:   0
  1 2r: 1.19E-11 2x: 7.33E+05 2u: 9.53E+02 ir: 3.64E-12 iu: 1.51E+02 rsn:   0
  2 2r: 2.15E-16 2x: 7.33E+05 2u: 2.65E+00 ir: 1.33E-16 iu: 4.09E-01 rsn:   0
  3 2r: 5.20E-17 2x: 7.33E+05 2u: 2.81E-05 ir: 2.94E-17 iu: 8.72E-06 rsn: stol

 Step     88 Time=  2.80000E+00 Dt=  5.00000E-02 [y] conv_reason: 4
  newton =   3 [     311] linear =     3 [       311] cuts =  0 [   0]
  --> SNES Linear/Non-Linear Iterations = 3 / 3
  --> SNES Residual: 0.520265E-16 0.520265E-18 0.294456E-16
  --> max change: dpmx=   1.5156E+02

== RICHARDS FLOW ===============================================================
  0 2r: 3.61E-09 2x: 0.00E+00 2u: 0.00E+00 ir: 8.99E-10 iu: 0.00E+00 rsn:   0
  1 2r: 1.14E-11 2x: 7.32E+05 2u: 9.33E+02 ir: 3.44E-12 iu: 1.48E+02 rsn:   0
  2 2r: 1.98E-16 2x: 7.32E+05 2u: 2.53E+00 ir: 1.20E-16 iu: 3.92E-01 rsn:   0
  3 2r: 3.10E-17 2x: 7.32E+05 2u: 2.56E-05 ir: 1.77E-17 iu: 7.95E-06 rsn: rtol

 Step     89 Time=  2.85000E+00 Dt=  5.00000E-02 [y] conv_reason: 3
  newton =   3 [     314] linear =     3 [       314] cuts =  0 [   0]
  --> SNES Linear/Non-Linear Iterations = 3 / 3
  --> SNES Residual: 0.309998E-16 0.309998E-18 0.176589E-16
  --> max change: dpmx=   1.4809E+02

== RICHARDS FLOW ===============================================================
  0 2r: 3.51E-09 2x: 0.00E+00 2u: 0.00E+00 ir: 8.78E-10 iu: 0.00E+00 rsn:   0
  1 2r: 1.08E-11 2x: 7.31E+05 2u: 9.14E+02 ir: 3.27E-12 iu: 1.44E+02 rsn:   0
  2 2r: 1.74E-16 2x: 7.31E+05 2u: 2.43E+00 ir: 1.09E-16 iu: 3.76E-01 rsn:   0
  3 2r: 3.96E-17 2x: 7.31E+05 2u: 2.34E-05 ir: 1.66E-17 iu: 7.27E-06 rsn: stol

 Step     90 Time=  2.90000E+00 Dt=  5.00000E-02 [y] conv_reason: 4
  newton =   3 [     317] linear =     3 [       317] cuts =  0 [   0]
  --> SNES Linear/Non-Linear Iterations = 3 / 3
  --> SNES Residual: 0.395845E-16 0.395845E-18 0.165851E-16
  --> max change: dpmx=   1.4477E+02

== RICHARDS FLOW ===============================================================
  0 2r: 3.43E-09 2x: 0.00E+00 2u: 0.00E+00 ir: 8.57E-10 iu: 0.00E+00 rsn:   0
  1 2r: 1.03E-11 2x: 7.31E+05 2u: 8.96E+02 ir: 3.10E-12 iu: 1.41E+02 rsn:   0
  2 2r: 1.61E-16 2x: 7.31E+05 2u: 2.32E+00 ir: 9.89E-17 iu: 3.61E-01 rsn:   0
  3 2r: 3.81E-17 2x: 7.31E+05 2u: 2.14E-05 ir: 1.88E-17 iu: 6.65E-06 rsn: stol

 Step     91 Time=  2.95000E+00 Dt=  5.00000E-02 [y] conv_reason: 4
  newton =   3 [     320] linear =     3 [       320] cuts =  0 [   0]
  --> SNES Linear/Non-Linear Iterations = 3 / 3
  --> SNES Residual: 0.381215E-16 0.381215E-18 0.187849E-16
  --> max change: dpmx=   1.4159E+02

== RICHARDS FLOW ===============================================================
  0 2r: 3.34E-09 2x: 0.00E+00 2u: 0.00E+00 ir: 8.37E-10 iu: 0.00E+00 rsn:   0
  1 2r: 9.81E-12 2x: 7.30E+05 2u: 8.78E+02 ir: 2.94E-12 iu: 1.38E+02 rsn:   0
  2 2r: 1.47E-16 2x: 7.30E+05 2u: 2.23E+00 ir: 9.00E-17 iu: 3.47E-01 rsn:   0
  3 2r: 3.86E-17 2x: 7.30E+05 2u: 1.96E-05 ir: 2.38E-17 iu: 6.09E-06 rsn: stol

 Step     92 Time=  3.00000E+00 Dt=  5.00000E-02 [y] conv_reason: 4
  newton =   3 [     323] linear =     3 [       323] cuts =  0 [   0]
  --> SNES Linear/Non-Linear Iterations = 3 / 3
  --> SNES Residual: 0.386034E-16 0.386034E-18 0.238103E-16
  --> max change: dpmx=   1.3854E+02

== RICHARDS FLOW ===============================================================
  0 2r: 3.26E-09 2x: 0.00E+00 2u: 0.00E+00 ir: 8.18E-10 iu: 0.00E+00 rsn:   0
  1 2r: 9.36E-12 2x: 7.30E+05 2u: 8.62E+02 ir: 2.80E-12 iu: 1.35E+02 rsn:   0
  2 2r: 1.37E-16 2x: 7.30E+05 2u: 2.14E+00 ir: 8.21E-17 iu: 3.33E-01 rsn:   0
  3 2r: 3.37E-17 2x: 7.30E+05 2u: 1.80E-05 ir: 1.47E-17 iu: 5.59E-06 rsn: stol

 Step     93 Time=  3.05000E+00 Dt=  5.00000E-02 [y] conv_reason: 4
  newton =   3 [     326] linear =     3 [       326] cuts =  0 [   0]
  --> SNES Linear/Non-Linear Iterations = 3 / 3
  --> SNES Residual: 0.337238E-16 0.337238E-18 0.147405E-16
  --> max change: dpmx=   1.3561E+02

== RICHARDS FLOW ===============================================================
  0 2r: 3.18E-09 2x: 0.00E+00 2u: 0.00E+00 ir: 7.99E-10 iu: 0.00E+00 rsn:   0
  1 2r: 8.94E-12 2x: 7.29E+05 2u: 8.45E+02 ir: 2.66E-12 iu: 1.33E+02 rsn:   0
  2 2r: 1.31E-16 2x: 7.29E+05 2u: 2.05E+00 ir: 7.49E-17 iu: 3.21E-01 rsn:   0
  3 2r: 2.95E-17 2x: 7.29E+05 2u: 1.65E-05 ir: 1.48E-17 iu: 5.13E-06 rsn: rtol

 Step     94 Time=  3.10000E+00 Dt=  5.00000E-02 [y] conv_reason: 3
  newton =   3 [     329] linear =     3 [       329] cuts =  0 [   0]
  --> SNES Linear/Non-Linear Iterations = 3 / 3
  --> SNES Residual: 0.294669E-16 0.294669E-18 0.148479E-16
  --> max change: dpmx=   1.3279E+02

== RICHARDS FLOW ===============================================================
  0 2r: 3.11E-09 2x: 0.00E+00 2u: 0.00E+00 ir: 7.82E-10 iu: 0.00E+00 rsn:   0
  1 2r: 8.55E-12 2x: 7.29E+05 2u: 8.30E+02 ir: 2.54E-12 iu: 1.30E+02 rsn:   0
  2 2r: 1.17E-16 2x: 7.29E+05 2u: 1.97E+00 ir: 6.85E-17 iu: 3.08E-01 rsn:   0
  3 2r: 4.75E-17 2x: 7.29E+05 2u: 1.52E-05 ir: 2.70E-17 iu: 4.72E-06 rsn: stol

 Step     95 Time=  3.15000E+00 Dt=  5.00000E-02 [y] conv_reason: 4
  newton =   3 [     332] linear =     3 [       332] cuts =  0 [   0]
  --> SNES Linear/Non-Linear Iterations = 3 / 3
  --> SNES Residual: 0.474686E-16 0.474686E-18 0.270127E-16
  --> max change: dpmx=   1.3009E+02

== RICHARDS FLOW ===============================================================
  0 2r: 3.04E-09 2x: 0.00E+00 2u: 0.00E+00 ir: 7.64E-10 iu: 0.00E+00 rsn:   0
  1 2r: 8.17E-12 2x: 7.28E+05 2u: 8.14E+02 ir: 2.42E-12 iu: 1.27E+02 rsn:   0
  2 2r: 1.05E-16 2x: 7.28E+05 2u: 1.89E+00 ir: 6.28E-17 iu: 2.97E-01 rsn:   0
  3 2r: 4.13E-17 2x: 7.28E+05 2u: 1.40E-05 ir: 2.90E-17 iu: 4.36E-06 rsn: stol

 Step     96 Time=  3.20000E+00 Dt=  5.00000E-02 [y] conv_reason: 4
  newton =   3 [     335] linear =     3 [       335] cuts =  0 [   0]
  --> SNES Linear/Non-Linear Iterations = 3 / 3
  --> SNES Residual: 0.412654E-16 0.412654E-18 0.290469E-16
  --> max change: dpmx=   1.2749E+02

== RICHARDS FLOW ===============================================================
  0 2r: 2.97E-09 2x: 0.00E+00 2u: 0.00E+00 ir: 7.48E-10 iu: 0.00E+00 rsn:   0
  1 2r: 7.82E-12 2x: 7.28E+05 2u: 8.00E+02 ir: 2.31E-12 iu: 1.25E+02 rsn:   0
  2 2r: 1.04E-16 2x: 7.28E+05 2u: 1.82E+00 ir: 5.76E-17 iu: 2.86E-01 rsn:   0
  3 2r: 2.36E-17 2x: 7.28E+05 2u: 1.29E-05 ir: 1.42E-17 iu: 4.03E-06 rsn: rtol

 Step     97 Time=  3.25000E+00 Dt=  5.00000E-02 [y] conv_reason: 3
  newton =   3 [     338] linear =     3 [       338] cuts =  0 [   0]
  --> SNES Linear/Non-Linear Iterations = 3 / 3
  --> SNES Residual: 0.236014E-16 0.236014E-18 0.142223E-16
  --> max change: dpmx=   1.2498E+02

== RICHARDS FLOW ===============================================================
  0 2r: 2.90E-09 2x: 0.00E+00 2u: 0.00E+00 ir: 7.32E-10 iu: 0.00E+00 rsn:   0
  1 2r: 7.49E-12 2x: 7.28E+05 2u: 7.85E+02 ir: 2.20E-12 iu: 1.22E+02 rsn:   0
  2 2r: 9.27E-17 2x: 7.28E+05 2u: 1.75E+00 ir: 5.29E-17 iu: 2.75E-01 rsn:   0
  3 2r: 5.40E-17 2x: 7.28E+05 2u: 1.19E-05 ir: 2.87E-17 iu: 3.73E-06 rsn: stol

 Step     98 Time=  3.30000E+00 Dt=  5.00000E-02 [y] conv_reason: 4
  newton =   3 [     341] linear =     3 [       341] cuts =  0 [   0]
  --> SNES Linear/Non-Linear Iterations = 3 / 3
  --> SNES Residual: 0.540031E-16 0.540031E-18 0.286839E-16
  --> max change: dpmx=   1.2257E+02

== RICHARDS FLOW ===============================================================
  0 2r: 2.84E-09 2x: 0.00E+00 2u: 0.00E+00 ir: 7.17E-10 iu: 0.00E+00 rsn:   0
  1 2r: 7.18E-12 2x: 7.27E+05 2u: 7.72E+02 ir: 2.11E-12 iu: 1.20E+02 rsn:   0
  2 2r: 8.43E-17 2x: 7.27E+05 2u: 1.69E+00 ir: 4.86E-17 iu: 2.66E-01 rsn:   0
  3 2r: 4.21E-17 2x: 7.27E+05 2u: 1.10E-05 ir: 2.96E-17 iu: 3.45E-06 rsn: stol

 Step     99 Time=  3.35000E+00 Dt=  5.00000E-02 [y] conv_reason: 4
  newton =   3 [     344] linear =     3 [       344] cuts =  0 [   0]
  --> SNES Linear/Non-Linear Iterations = 3 / 3
  --> SNES Residual: 0.421148E-16 0.421148E-18 0.296154E-16
  --> max change: dpmx=   1.2024E+02

== RICHARDS FLOW ===============================================================
  0 2r: 2.78E-09 2x: 0.00E+00 2u: 0.00E+00 ir: 7.02E-10 iu: 0.00E+00 rsn:   0
  1 2r: 6.88E-12 2x: 7.27E+05 2u: 7.58E+02 ir: 2.01E-12 iu: 1.18E+02 rsn:   0
  2 2r: 8.64E-17 2x: 7.27E+05 2u: 1.63E+00 ir: 4.48E-17 iu: 2.56E-01 rsn:   0
  3 2r: 4.71E-17 2x: 7.27E+05 2u: 1.02E-05 ir: 2.81E-17 iu: 3.20E-06 rsn: stol

 Step    100 Time=  3.40000E+00 Dt=  5.00000E-02 [y] conv_reason: 4
  newton =   3 [     347] linear =     3 [       347] cuts =  0 [   0]
  --> SNES Linear/Non-Linear Iterations = 3 / 3
  --> SNES Residual: 0.471008E-16 0.471008E-18 0.280817E-16
  --> max change: dpmx=   1.1799E+02

== RICHARDS FLOW ===============================================================
  0 2r: 2.72E-09 2x: 0.00E+00 2u: 0.00E+00 ir: 6.88E-10 iu: 0.00E+00 rsn:   0
  1 2r: 6.61E-12 2x: 7.26E+05 2u: 7.46E+02 ir: 1.93E-12 iu: 1.16E+02 rsn:   0
  2 2r: 7.92E-17 2x: 7.26E+05 2u: 1.57E+00 ir: 4.13E-17 iu: 2.47E-01 rsn:   0
  3 2r: 3.48E-17 2x: 7.26E+05 2u: 9.42E-06 ir: 1.58E-17 iu: 2.97E-06 rsn: stol

 Step    101 Time=  3.45000E+00 Dt=  5.00000E-02 [y] conv_reason: 4
  newton =   3 [     350] linear =     3 [       350] cuts =  0 [   0]
  --> SNES Linear/Non-Linear Iterations = 3 / 3
  --> SNES Residual: 0.348322E-16 0.348322E-18 0.157569E-16
  --> max change: dpmx=   1.1583E+02

== RICHARDS FLOW ===============================================================
  0 2r: 2.66E-09 2x: 0.00E+00 2u: 0.00E+00 ir: 6.74E-10 iu: 0.00E+00 rsn:   0
  1 2r: 6.34E-12 2x: 7.26E+05 2u: 7.33E+02 ir: 1.84E-12 iu: 1.14E+02 rsn:   0
  2 2r: 7.97E-17 2x: 7.26E+05 2u: 1.51E+00 ir: 3.81E-17 iu: 2.39E-01 rsn:   0
  3 2r: 5.56E-17 2x: 7.26E+05 2u: 8.74E-06 ir: 2.53E-17 iu: 2.76E-06 rsn: stol

 Step    102 Time=  3.50000E+00 Dt=  5.00000E-02 [y] conv_reason: 4
  newton =   3 [     353] linear =     3 [       353] cuts =  0 [   0]
  --> SNES Linear/Non-Linear Iterations = 3 / 3
  --> SNES Residual: 0.555536E-16 0.555536E-18 0.252784E-16
  --> max change: dpmx=   1.1373E+02

== RICHARDS FLOW ===============================================================
  0 2r: 2.61E-09 2x: 0.00E+00 2u: 0.00E+00 ir: 6.60E-10 iu: 0.00E+00 rsn:   0
  1 2r: 6.09E-12 2x: 7.25E+05 2u: 7.21E+02 ir: 1.77E-12 iu: 1.12E+02 rsn:   0
  2 2r: 7.50E-17 2x: 7.25E+05 2u: 1.46E+00 ir: 3.52E-17 iu: 2.30E-01 rsn:   0
[...]

 Step    700 Time=  3.34000E+01 Dt=  5.00000E-02 [y] conv_reason: 4
  newton =   2 [    1898] linear =     2 [      1898] cuts =  0 [   0]
  --> SNES Linear/Non-Linear Iterations = 2 / 2
  --> SNES Residual: 0.465959E-16 0.465959E-18 0.275680E-16
  --> max change: dpmx=   2.4865E+00

== RICHARDS FLOW ===============================================================
  0 2r: 3.88E-11 2x: 0.00E+00 2u: 0.00E+00 ir: 9.86E-12 iu: 0.00E+00 rsn:   0
  1 2r: 1.64E-15 2x: 6.85E+05 2u: 1.66E+01 ir: 4.92E-16 iu: 2.48E+00 rsn:   0
  2 2r: 4.98E-17 2x: 6.85E+05 2u: 6.19E-04 ir: 2.45E-17 iu: 1.01E-04 rsn: stol

 Step    701 Time=  3.34500E+01 Dt=  5.00000E-02 [y] conv_reason: 4
  newton =   2 [    1900] linear =     2 [      1900] cuts =  0 [   0]
  --> SNES Linear/Non-Linear Iterations = 2 / 2
  --> SNES Residual: 0.497548E-16 0.497548E-18 0.244674E-16
  --> max change: dpmx=   2.4751E+00

== RICHARDS FLOW ===============================================================
  0 2r: 3.86E-11 2x: 0.00E+00 2u: 0.00E+00 ir: 9.82E-12 iu: 0.00E+00 rsn:   0
  1 2r: 1.63E-15 2x: 6.85E+05 2u: 1.65E+01 ir: 4.87E-16 iu: 2.46E+00 rsn:   0
  2 2r: 6.49E-17 2x: 6.85E+05 2u: 6.14E-04 ir: 2.66E-17 iu: 1.00E-04 rsn: stol

 Step    702 Time=  3.35000E+01 Dt=  5.00000E-02 [y] conv_reason: 4
  newton =   2 [    1902] linear =     2 [      1902] cuts =  0 [   0]
  --> SNES Linear/Non-Linear Iterations = 2 / 2
  --> SNES Residual: 0.649033E-16 0.649033E-18 0.266354E-16
  --> max change: dpmx=   2.4637E+00

== RICHARDS FLOW ===============================================================
  0 2r: 3.84E-11 2x: 0.00E+00 2u: 0.00E+00 ir: 9.77E-12 iu: 0.00E+00 rsn:   0
  1 2r: 1.61E-15 2x: 6.85E+05 2u: 1.65E+01 ir: 4.83E-16 iu: 2.45E+00 rsn:   0
  2 2r: 5.36E-17 2x: 6.85E+05 2u: 6.08E-04 ir: 2.92E-17 iu: 9.94E-05 rsn: stol

 Step    703 Time=  3.35500E+01 Dt=  5.00000E-02 [y] conv_reason: 4
  newton =   2 [    1904] linear =     2 [      1904] cuts =  0 [   0]
  --> SNES Linear/Non-Linear Iterations = 2 / 2
  --> SNES Residual: 0.535820E-16 0.535820E-18 0.291820E-16
  --> max change: dpmx=   2.4524E+00

== RICHARDS FLOW ===============================================================
  0 2r: 3.82E-11 2x: 0.00E+00 2u: 0.00E+00 ir: 9.72E-12 iu: 0.00E+00 rsn:   0
  1 2r: 1.60E-15 2x: 6.85E+05 2u: 1.64E+01 ir: 4.78E-16 iu: 2.44E+00 rsn:   0
  2 2r: 5.33E-17 2x: 6.85E+05 2u: 6.02E-04 ir: 2.78E-17 iu: 9.85E-05 rsn: stol

 Step    704 Time=  3.36000E+01 Dt=  5.00000E-02 [y] conv_reason: 4
  newton =   2 [    1906] linear =     2 [      1906] cuts =  0 [   0]
  --> SNES Linear/Non-Linear Iterations = 2 / 2
  --> SNES Residual: 0.532771E-16 0.532771E-18 0.278377E-16
  --> max change: dpmx=   2.4412E+00

== RICHARDS FLOW ===============================================================
  0 2r: 3.81E-11 2x: 0.00E+00 2u: 0.00E+00 ir: 9.68E-12 iu: 0.00E+00 rsn:   0
  1 2r: 1.58E-15 2x: 6.85E+05 2u: 1.63E+01 ir: 4.74E-16 iu: 2.43E+00 rsn:   0
  2 2r: 5.74E-17 2x: 6.85E+05 2u: 5.97E-04 ir: 2.81E-17 iu: 9.76E-05 rsn: stol

 Step    705 Time=  3.36500E+01 Dt=  5.00000E-02 [y] conv_reason: 4
  newton =   2 [    1908] linear =     2 [      1908] cuts =  0 [   0]
  --> SNES Linear/Non-Linear Iterations = 2 / 2
  --> SNES Residual: 0.574245E-16 0.574245E-18 0.280738E-16
  --> max change: dpmx=   2.4300E+00

== RICHARDS FLOW ===============================================================
  0 2r: 3.79E-11 2x: 0.00E+00 2u: 0.00E+00 ir: 9.63E-12 iu: 0.00E+00 rsn:   0
  1 2r: 1.57E-15 2x: 6.85E+05 2u: 1.62E+01 ir: 4.70E-16 iu: 2.42E+00 rsn:   0
  2 2r: 3.12E-17 2x: 6.85E+05 2u: 5.91E-04 ir: 2.61E-17 iu: 9.67E-05 rsn: stol

 Step    706 Time=  3.37000E+01 Dt=  5.00000E-02 [y] conv_reason: 4
  newton =   2 [    1910] linear =     2 [      1910] cuts =  0 [   0]
  --> SNES Linear/Non-Linear Iterations = 2 / 2
  --> SNES Residual: 0.311506E-16 0.311506E-18 0.261096E-16
  --> max change: dpmx=   2.4189E+00

== RICHARDS FLOW ===============================================================
  0 2r: 3.77E-11 2x: 0.00E+00 2u: 0.00E+00 ir: 9.59E-12 iu: 0.00E+00 rsn:   0
  1 2r: 1.55E-15 2x: 6.85E+05 2u: 1.62E+01 ir: 4.65E-16 iu: 2.41E+00 rsn:   0
  2 2r: 3.84E-17 2x: 6.85E+05 2u: 5.86E-04 ir: 1.64E-17 iu: 9.58E-05 rsn: stol

 Step    707 Time=  3.37500E+01 Dt=  5.00000E-02 [y] conv_reason: 4
  newton =   2 [    1912] linear =     2 [      1912] cuts =  0 [   0]
  --> SNES Linear/Non-Linear Iterations = 2 / 2
  --> SNES Residual: 0.383821E-16 0.383821E-18 0.163808E-16
  --> max change: dpmx=   2.4078E+00

== RICHARDS FLOW ===============================================================
  0 2r: 3.75E-11 2x: 0.00E+00 2u: 0.00E+00 ir: 9.54E-12 iu: 0.00E+00 rsn:   0
  1 2r: 1.54E-15 2x: 6.85E+05 2u: 1.61E+01 ir: 4.61E-16 iu: 2.40E+00 rsn:   0
  2 2r: 4.37E-17 2x: 6.85E+05 2u: 5.81E-04 ir: 2.45E-17 iu: 9.50E-05 rsn: stol

 Step    708 Time=  3.38000E+01 Dt=  5.00000E-02 [y] conv_reason: 4
  newton =   2 [    1914] linear =     2 [      1914] cuts =  0 [   0]
  --> SNES Linear/Non-Linear Iterations = 2 / 2
  --> SNES Residual: 0.437398E-16 0.437398E-18 0.245222E-16
  --> max change: dpmx=   2.3968E+00

== RICHARDS FLOW ===============================================================
  0 2r: 3.74E-11 2x: 0.00E+00 2u: 0.00E+00 ir: 9.50E-12 iu: 0.00E+00 rsn:   0
  1 2r: 1.52E-15 2x: 6.85E+05 2u: 1.60E+01 ir: 4.57E-16 iu: 2.39E+00 rsn:   0
  2 2r: 2.67E-17 2x: 6.85E+05 2u: 5.75E-04 ir: 1.70E-17 iu: 9.41E-05 rsn: stol

 Step    709 Time=  3.38500E+01 Dt=  5.00000E-02 [y] conv_reason: 4
  newton =   2 [    1916] linear =     2 [      1916] cuts =  0 [   0]
  --> SNES Linear/Non-Linear Iterations = 2 / 2
  --> SNES Residual: 0.266861E-16 0.266861E-18 0.169508E-16
  --> max change: dpmx=   2.3858E+00

== RICHARDS FLOW ===============================================================
  0 2r: 3.72E-11 2x: 0.00E+00 2u: 0.00E+00 ir: 9.45E-12 iu: 0.00E+00 rsn:   0
  1 2r: 1.51E-15 2x: 6.85E+05 2u: 1.59E+01 ir: 4.52E-16 iu: 2.37E+00 rsn:   0
  2 2r: 2.73E-17 2x: 6.85E+05 2u: 5.70E-04 ir: 1.69E-17 iu: 9.32E-05 rsn: stol

 Step    710 Time=  3.39000E+01 Dt=  5.00000E-02 [y] conv_reason: 4
  newton =   2 [    1918] linear =     2 [      1918] cuts =  0 [   0]
  --> SNES Linear/Non-Linear Iterations = 2 / 2
  --> SNES Residual: 0.273354E-16 0.273354E-18 0.168727E-16
  --> max change: dpmx=   2.3749E+00

== RICHARDS FLOW ===============================================================
  0 2r: 3.70E-11 2x: 0.00E+00 2u: 0.00E+00 ir: 9.41E-12 iu: 0.00E+00 rsn:   0
  1 2r: 1.50E-15 2x: 6.85E+05 2u: 1.59E+01 ir: 4.48E-16 iu: 2.36E+00 rsn:   0
  2 2r: 6.13E-17 2x: 6.85E+05 2u: 5.65E-04 ir: 2.84E-17 iu: 9.24E-05 rsn: stol

 Step    711 Time=  3.39500E+01 Dt=  5.00000E-02 [y] conv_reason: 4
  newton =   2 [    1920] linear =     2 [      1920] cuts =  0 [   0]
  --> SNES Linear/Non-Linear Iterations = 2 / 2
  --> SNES Residual: 0.613318E-16 0.613318E-18 0.284313E-16
  --> max change: dpmx=   2.3640E+00

== RICHARDS FLOW ===============================================================
  0 2r: 3.68E-11 2x: 0.00E+00 2u: 0.00E+00 ir: 9.37E-12 iu: 0.00E+00 rsn:   0
  1 2r: 1.48E-15 2x: 6.85E+05 2u: 1.58E+01 ir: 4.44E-16 iu: 2.35E+00 rsn:   0
  2 2r: 4.63E-17 2x: 6.85E+05 2u: 5.60E-04 ir: 2.69E-17 iu: 9.15E-05 rsn: stol

 Step    712 Time=  3.40000E+01 Dt=  5.00000E-02 [y] conv_reason: 4
  newton =   2 [    1922] linear =     2 [      1922] cuts =  0 [   0]
  --> SNES Linear/Non-Linear Iterations = 2 / 2
  --> SNES Residual: 0.462645E-16 0.462645E-18 0.269484E-16
  --> max change: dpmx=   2.3532E+00

== RICHARDS FLOW ===============================================================
  0 2r: 3.67E-11 2x: 0.00E+00 2u: 0.00E+00 ir: 9.32E-12 iu: 0.00E+00 rsn:   0
  1 2r: 1.47E-15 2x: 6.85E+05 2u: 1.57E+01 ir: 4.40E-16 iu: 2.34E+00 rsn:   0
  2 2r: 4.22E-17 2x: 6.85E+05 2u: 5.54E-04 ir: 1.91E-17 iu: 9.07E-05 rsn: stol

 Step    713 Time=  3.40500E+01 Dt=  5.00000E-02 [y] conv_reason: 4
  newton =   2 [    1924] linear =     2 [      1924] cuts =  0 [   0]
  --> SNES Linear/Non-Linear Iterations = 2 / 2
  --> SNES Residual: 0.422494E-16 0.422494E-18 0.190593E-16
  --> max change: dpmx=   2.3424E+00

== RICHARDS FLOW ===============================================================
  0 2r: 3.65E-11 2x: 0.00E+00 2u: 0.00E+00 ir: 9.28E-12 iu: 0.00E+00 rsn:   0
  1 2r: 1.46E-15 2x: 6.85E+05 2u: 1.56E+01 ir: 4.36E-16 iu: 2.33E+00 rsn:   0
  2 2r: 5.79E-17 2x: 6.85E+05 2u: 5.49E-04 ir: 2.68E-17 iu: 8.98E-05 rsn: stol

 Step    714 Time=  3.41000E+01 Dt=  5.00000E-02 [y] conv_reason: 4
  newton =   2 [    1926] linear =     2 [      1926] cuts =  0 [   0]
  --> SNES Linear/Non-Linear Iterations = 2 / 2
  --> SNES Residual: 0.579435E-16 0.579435E-18 0.267673E-16
  --> max change: dpmx=   2.3317E+00

== RICHARDS FLOW ===============================================================
  0 2r: 3.63E-11 2x: 0.00E+00 2u: 0.00E+00 ir: 9.24E-12 iu: 0.00E+00 rsn:   0
  1 2r: 1.44E-15 2x: 6.85E+05 2u: 1.56E+01 ir: 4.32E-16 iu: 2.32E+00 rsn:   0
  2 2r: 3.04E-17 2x: 6.85E+05 2u: 5.44E-04 ir: 1.71E-17 iu: 8.90E-05 rsn: stol

 Step    715 Time=  3.41500E+01 Dt=  5.00000E-02 [y] conv_reason: 4
  newton =   2 [    1928] linear =     2 [      1928] cuts =  0 [   0]
  --> SNES Linear/Non-Linear Iterations = 2 / 2
  --> SNES Residual: 0.304111E-16 0.304111E-18 0.171109E-16
  --> max change: dpmx=   2.3210E+00

== RICHARDS FLOW ===============================================================
  0 2r: 3.62E-11 2x: 0.00E+00 2u: 0.00E+00 ir: 9.19E-12 iu: 0.00E+00 rsn:   0
  1 2r: 1.43E-15 2x: 6.85E+05 2u: 1.55E+01 ir: 4.28E-16 iu: 2.31E+00 rsn:   0
  2 2r: 2.00E-17 2x: 6.85E+05 2u: 5.39E-04 ir: 1.08E-17 iu: 8.82E-05 rsn: stol

 Step    716 Time=  3.42000E+01 Dt=  5.00000E-02 [y] conv_reason: 4
  newton =   2 [    1930] linear =     2 [      1930] cuts =  0 [   0]
  --> SNES Linear/Non-Linear Iterations = 2 / 2
  --> SNES Residual: 0.200410E-16 0.200410E-18 0.108092E-16
  --> max change: dpmx=   2.3104E+00

== RICHARDS FLOW ===============================================================
  0 2r: 3.60E-11 2x: 0.00E+00 2u: 0.00E+00 ir: 9.15E-12 iu: 0.00E+00 rsn:   0
  1 2r: 1.42E-15 2x: 6.85E+05 2u: 1.54E+01 ir: 4.24E-16 iu: 2.30E+00 rsn:   0
  2 2r: 4.60E-17 2x: 6.85E+05 2u: 5.34E-04 ir: 2.51E-17 iu: 8.74E-05 rsn: stol

 Step    717 Time=  3.42500E+01 Dt=  5.00000E-02 [y] conv_reason: 4
  newton =   2 [    1932] linear =     2 [      1932] cuts =  0 [   0]
  --> SNES Linear/Non-Linear Iterations = 2 / 2
  --> SNES Residual: 0.459686E-16 0.459686E-18 0.251414E-16
  --> max change: dpmx=   2.2998E+00

== RICHARDS FLOW ===============================================================
  0 2r: 3.58E-11 2x: 0.00E+00 2u: 0.00E+00 ir: 9.11E-12 iu: 0.00E+00 rsn:   0
  1 2r: 1.40E-15 2x: 6.85E+05 2u: 1.54E+01 ir: 4.20E-16 iu: 2.29E+00 rsn:   0
  2 2r: 6.31E-17 2x: 6.85E+05 2u: 5.29E-04 ir: 2.93E-17 iu: 8.66E-05 rsn: stol

 Step    718 Time=  3.43000E+01 Dt=  5.00000E-02 [y] conv_reason: 4
  newton =   2 [    1934] linear =     2 [      1934] cuts =  0 [   0]
  --> SNES Linear/Non-Linear Iterations = 2 / 2
  --> SNES Residual: 0.631240E-16 0.631240E-18 0.292929E-16
  --> max change: dpmx=   2.2893E+00

== RICHARDS FLOW ===============================================================
  0 2r: 3.57E-11 2x: 0.00E+00 2u: 0.00E+00 ir: 9.06E-12 iu: 0.00E+00 rsn:   0
  1 2r: 1.39E-15 2x: 6.85E+05 2u: 1.53E+01 ir: 4.16E-16 iu: 2.28E+00 rsn:   0
  2 2r: 4.08E-17 2x: 6.85E+05 2u: 5.25E-04 ir: 2.00E-17 iu: 8.58E-05 rsn: stol

 Step    719 Time=  3.43500E+01 Dt=  5.00000E-02 [y] conv_reason: 4
  newton =   2 [    1936] linear =     2 [      1936] cuts =  0 [   0]
  --> SNES Linear/Non-Linear Iterations = 2 / 2
  --> SNES Residual: 0.408232E-16 0.408232E-18 0.200160E-16
  --> max change: dpmx=   2.2789E+00

== RICHARDS FLOW ===============================================================
  0 2r: 3.55E-11 2x: 0.00E+00 2u: 0.00E+00 ir: 9.02E-12 iu: 0.00E+00 rsn:   0
  1 2r: 1.38E-15 2x: 6.85E+05 2u: 1.52E+01 ir: 4.12E-16 iu: 2.27E+00 rsn:   0
  2 2r: 4.25E-17 2x: 6.85E+05 2u: 5.20E-04 ir: 2.50E-17 iu: 8.50E-05 rsn: stol

 Step    720 Time=  3.44000E+01 Dt=  5.00000E-02 [y] conv_reason: 4
  newton =   2 [    1938] linear =     2 [      1938] cuts =  0 [   0]
  --> SNES Linear/Non-Linear Iterations = 2 / 2
  --> SNES Residual: 0.424876E-16 0.424876E-18 0.250250E-16
  --> max change: dpmx=   2.2684E+00

== RICHARDS FLOW ===============================================================
  0 2r: 3.53E-11 2x: 0.00E+00 2u: 0.00E+00 ir: 8.98E-12 iu: 0.00E+00 rsn:   0
  1 2r: 1.36E-15 2x: 6.85E+05 2u: 1.52E+01 ir: 4.08E-16 iu: 2.26E+00 rsn:   0
  2 2r: 2.56E-17 2x: 6.85E+05 2u: 5.15E-04 ir: 1.32E-17 iu: 8.42E-05 rsn: stol

 Step    721 Time=  3.44500E+01 Dt=  5.00000E-02 [y] conv_reason: 4
  newton =   2 [    1940] linear =     2 [      1940] cuts =  0 [   0]
  --> SNES Linear/Non-Linear Iterations = 2 / 2
  --> SNES Residual: 0.256409E-16 0.256409E-18 0.132491E-16
  --> max change: dpmx=   2.2581E+00

== RICHARDS FLOW ===============================================================
  0 2r: 3.52E-11 2x: 0.00E+00 2u: 0.00E+00 ir: 8.94E-12 iu: 0.00E+00 rsn:   0
  1 2r: 1.35E-15 2x: 6.85E+05 2u: 1.51E+01 ir: 4.05E-16 iu: 2.25E+00 rsn:   0
  2 2r: 4.16E-17 2x: 6.85E+05 2u: 5.10E-04 ir: 2.27E-17 iu: 8.35E-05 rsn: stol

 Step    722 Time=  3.45000E+01 Dt=  5.00000E-02 [y] conv_reason: 4
  newton =   2 [    1942] linear =     2 [      1942] cuts =  0 [   0]
  --> SNES Linear/Non-Linear Iterations = 2 / 2
  --> SNES Residual: 0.415605E-16 0.415605E-18 0.226924E-16
  --> max change: dpmx=   2.2478E+00

== RICHARDS FLOW ===============================================================
  0 2r: 3.50E-11 2x: 0.00E+00 2u: 0.00E+00 ir: 8.90E-12 iu: 0.00E+00 rsn:   0
  1 2r: 1.34E-15 2x: 6.85E+05 2u: 1.50E+01 ir: 4.01E-16 iu: 2.24E+00 rsn:   0
  2 2r: 5.51E-17 2x: 6.85E+05 2u: 5.06E-04 ir: 2.46E-17 iu: 8.27E-05 rsn: stol

 Step    723 Time=  3.45500E+01 Dt=  5.00000E-02 [y] conv_reason: 4
  newton =   2 [    1944] linear =     2 [      1944] cuts =  0 [   0]
  --> SNES Linear/Non-Linear Iterations = 2 / 2
  --> SNES Residual: 0.550807E-16 0.550807E-18 0.246192E-16
  --> max change: dpmx=   2.2375E+00

== RICHARDS FLOW ===============================================================
  0 2r: 3.48E-11 2x: 0.00E+00 2u: 0.00E+00 ir: 8.86E-12 iu: 0.00E+00 rsn:   0
  1 2r: 1.33E-15 2x: 6.85E+05 2u: 1.49E+01 ir: 3.97E-16 iu: 2.23E+00 rsn:   0
  2 2r: 6.55E-17 2x: 6.85E+05 2u: 5.01E-04 ir: 2.97E-17 iu: 8.19E-05 rsn: stol

 Step    724 Time=  3.46000E+01 Dt=  5.00000E-02 [y] conv_reason: 4
  newton =   2 [    1946] linear =     2 [      1946] cuts =  0 [   0]
  --> SNES Linear/Non-Linear Iterations = 2 / 2
  --> SNES Residual: 0.654804E-16 0.654804E-18 0.296906E-16
  --> max change: dpmx=   2.2273E+00

== RICHARDS FLOW ===============================================================
  0 2r: 3.47E-11 2x: 0.00E+00 2u: 0.00E+00 ir: 8.81E-12 iu: 0.00E+00 rsn:   0
  1 2r: 1.31E-15 2x: 6.85E+05 2u: 1.49E+01 ir: 3.93E-16 iu: 2.22E+00 rsn:   0
  2 2r: 5.55E-17 2x: 6.85E+05 2u: 4.96E-04 ir: 2.57E-17 iu: 8.12E-05 rsn: stol

 Step    725 Time=  3.46500E+01 Dt=  5.00000E-02 [y] conv_reason: 4
  newton =   2 [    1948] linear =     2 [      1948] cuts =  0 [   0]
  --> SNES Linear/Non-Linear Iterations = 2 / 2
  --> SNES Residual: 0.554897E-16 0.554897E-18 0.256820E-16
  --> max change: dpmx=   2.2171E+00

== RICHARDS FLOW ===============================================================
  0 2r: 3.45E-11 2x: 0.00E+00 2u: 0.00E+00 ir: 8.77E-12 iu: 0.00E+00 rsn:   0
  1 2r: 1.30E-15 2x: 6.85E+05 2u: 1.48E+01 ir: 3.90E-16 iu: 2.21E+00 rsn:   0
  2 2r: 3.16E-17 2x: 6.85E+05 2u: 4.92E-04 ir: 1.82E-17 iu: 8.05E-05 rsn: stol

 Step    726 Time=  3.47000E+01 Dt=  5.00000E-02 [y] conv_reason: 4
  newton =   2 [    1950] linear =     2 [      1950] cuts =  0 [   0]
  --> SNES Linear/Non-Linear Iterations = 2 / 2
  --> SNES Residual: 0.316073E-16 0.316073E-18 0.181612E-16
  --> max change: dpmx=   2.2070E+00

== RICHARDS FLOW ===============================================================
  0 2r: 3.44E-11 2x: 0.00E+00 2u: 0.00E+00 ir: 8.73E-12 iu: 0.00E+00 rsn:   0
  1 2r: 1.29E-15 2x: 6.85E+05 2u: 1.47E+01 ir: 3.86E-16 iu: 2.20E+00 rsn:   0
  2 2r: 5.31E-17 2x: 6.85E+05 2u: 4.87E-04 ir: 2.45E-17 iu: 7.97E-05 rsn: stol

 Step    727 Time=  3.47500E+01 Dt=  5.00000E-02 [y] conv_reason: 4
  newton =   2 [    1952] linear =     2 [      1952] cuts =  0 [   0]
  --> SNES Linear/Non-Linear Iterations = 2 / 2
  --> SNES Residual: 0.530554E-16 0.530554E-18 0.244958E-16
  --> max change: dpmx=   2.1969E+00

== RICHARDS FLOW ===============================================================
  0 2r: 3.42E-11 2x: 0.00E+00 2u: 0.00E+00 ir: 8.69E-12 iu: 0.00E+00 rsn:   0
  1 2r: 1.28E-15 2x: 6.85E+05 2u: 1.47E+01 ir: 3.83E-16 iu: 2.19E+00 rsn:   0
  2 2r: 1.97E-17 2x: 6.85E+05 2u: 4.83E-04 ir: 1.07E-17 iu: 7.90E-05 rsn: stol

 Step    728 Time=  3.48000E+01 Dt=  5.00000E-02 [y] conv_reason: 4
  newton =   2 [    1954] linear =     2 [      1954] cuts =  0 [   0]
  --> SNES Linear/Non-Linear Iterations = 2 / 2
  --> SNES Residual: 0.197381E-16 0.197381E-18 0.107215E-16
  --> max change: dpmx=   2.1869E+00

== RICHARDS FLOW ===============================================================
  0 2r: 3.40E-11 2x: 0.00E+00 2u: 0.00E+00 ir: 8.65E-12 iu: 0.00E+00 rsn:   0
  1 2r: 1.27E-15 2x: 6.85E+05 2u: 1.46E+01 ir: 3.79E-16 iu: 2.18E+00 rsn:   0
  2 2r: 4.17E-17 2x: 6.85E+05 2u: 4.79E-04 ir: 2.45E-17 iu: 7.83E-05 rsn: stol

 Step    729 Time=  3.48500E+01 Dt=  5.00000E-02 [y] conv_reason: 4
  newton =   2 [    1956] linear =     2 [      1956] cuts =  0 [   0]
  --> SNES Linear/Non-Linear Iterations = 2 / 2
  --> SNES Residual: 0.417355E-16 0.417355E-18 0.244519E-16
  --> max change: dpmx=   2.1769E+00

== RICHARDS FLOW ===============================================================
  0 2r: 3.39E-11 2x: 0.00E+00 2u: 0.00E+00 ir: 8.61E-12 iu: 0.00E+00 rsn:   0
  1 2r: 1.25E-15 2x: 6.85E+05 2u: 1.45E+01 ir: 3.76E-16 iu: 2.17E+00 rsn:   0
  2 2r: 3.95E-17 2x: 6.85E+05 2u: 4.74E-04 ir: 2.42E-17 iu: 7.75E-05 rsn: stol

 Step    730 Time=  3.49000E+01 Dt=  5.00000E-02 [y] conv_reason: 4
  newton =   2 [    1958] linear =     2 [      1958] cuts =  0 [   0]
  --> SNES Linear/Non-Linear Iterations = 2 / 2
  --> SNES Residual: 0.394613E-16 0.394613E-18 0.241512E-16
  --> max change: dpmx=   2.1670E+00

== RICHARDS FLOW ===============================================================
  0 2r: 3.37E-11 2x: 0.00E+00 2u: 0.00E+00 ir: 8.57E-12 iu: 0.00E+00 rsn:   0
  1 2r: 1.24E-15 2x: 6.85E+05 2u: 1.45E+01 ir: 3.72E-16 iu: 2.16E+00 rsn:   0
  2 2r: 4.79E-17 2x: 6.85E+05 2u: 4.70E-04 ir: 2.55E-17 iu: 7.68E-05 rsn: stol

 Step    731 Time=  3.49500E+01 Dt=  5.00000E-02 [y] conv_reason: 4
  newton =   2 [    1960] linear =     2 [      1960] cuts =  0 [   0]
  --> SNES Linear/Non-Linear Iterations = 2 / 2
  --> SNES Residual: 0.478806E-16 0.478806E-18 0.255495E-16
  --> max change: dpmx=   2.1571E+00

== RICHARDS FLOW ===============================================================
  0 2r: 3.36E-11 2x: 0.00E+00 2u: 0.00E+00 ir: 8.53E-12 iu: 0.00E+00 rsn:   0
  1 2r: 1.23E-15 2x: 6.85E+05 2u: 1.44E+01 ir: 3.69E-16 iu: 2.15E+00 rsn:   0
  2 2r: 4.90E-17 2x: 6.85E+05 2u: 4.66E-04 ir: 2.38E-17 iu: 7.61E-05 rsn: stol

 Step    732 Time=  3.50000E+01 Dt=  5.00000E-02 [y] conv_reason: 4
  newton =   2 [    1962] linear =     2 [      1962] cuts =  0 [   0]
  --> SNES Linear/Non-Linear Iterations = 2 / 2
  --> SNES Residual: 0.489607E-16 0.489607E-18 0.237904E-16
  --> max change: dpmx=   2.1472E+00

 --> write tecplot output file: 1D_vsat_flow_pulse_2layer-005.tec
      0.00 Seconds to write to Tecplot file(s)

PMCSubsurfaceFlow
 Total Time: 2.0437E+00 seconds

 FLOW TS SNES steps = 732  newton = 1962  linear = 1962  cuts = 0
 FLOW TS SNES Wasted Linear Iterations = 0
 FLOW TS SNES Wasted Newton Iterations = 0
 FLOW TS SNES time = 1.7 seconds

 Wall Clock Time:  6.1446E+00 [sec]   1.0241E-01 [min]   1.7068E-03 [hr]
