
=================
  PFLOTRAN v6.0
=================

"grid_structured_type" set to default value.
pflotran card:: NUMERICAL_METHODS
pflotran card:: GRID
pflotran card:: MATERIAL_PROPERTY
  Name :: soil1
pflotran card:: CHARACTERISTIC_CURVES
  Name :: cc1
 WARNING: Mualem-van Genuchten relative permeability function is being used without SMOOTH option.
pflotran card:: OUTPUT
pflotran card:: TIME
pflotran card:: REGION
all
pflotran card:: REGION
top
pflotran card:: REGION
bottom
pflotran card:: REGION
9m
pflotran card:: FLOW_CONDITION
initial_pressure
pflotran card:: FLOW_CONDITION
recharge
pflotran card:: INITIAL_CONDITION
"Initial Condition name" set to default value.
pflotran card:: BOUNDARY_CONDITION
pflotran card:: BOUNDARY_CONDITION
pflotran card:: OBSERVATION
pflotran card:: STRATA
pflotran card:: END_SUBSURFACE

Extent of Gridded Domain
 X: 0.000000E+00 - 1.000000E+00
 Y: 0.000000E+00 - 1.000000E+00
 Z: 0.000000E+00 - 1.000000E+01

Size of Gridded Domain
 Number of grid cells: 100

Number of active grid cells: 100
Number of inactive grid cells: 0


=+=+=+=+=+=+=+=+=+=+=+=+=+=+=+=+=+=+=+=+=+=+=+=+=+=+=+=+=+=+=+=+=+=+=+=+=+=+=+=+

  Initial Condition

--------------------------------------------------------------------------------
          Flow Condition:   initial_pressure
                  Region:   all
--------------------------------------------------------------------------------

  Flow Condition: initial_pressure
    Synchronize time with update: no
    Time units: yr
    Length units: m
      Datum:
        Dataset: Unnamed Ascii Dataset
          Type: dataset_ascii_type
          Transient: no
          Array Rank:  3

    Sub Condition: pressure
      Type: hydrostatic
      Gradient:
      Data:
        Dataset: Unnamed Ascii Dataset
          Type: dataset_ascii_type
          Transient: no
          Array Rank:  1

--------------------------------------------------------------------------------

=+=+=+=+=+=+=+=+=+=+=+=+=+=+=+=+=+=+=+=+=+=+=+=+=+=+=+=+=+=+=+=+=+=+=+=+=+=+=+=+

  Boundary Condition

--------------------------------------------------------------------------------
          Flow Condition:   initial_pressure
                  Region:   bottom
--------------------------------------------------------------------------------

  Flow Condition: initial_pressure
    Synchronize time with update: no
    Time units: yr
    Length units: m
      Datum:
        Dataset: Unnamed Ascii Dataset
          Type: dataset_ascii_type
          Transient: no
          Array Rank:  3

    Sub Condition: pressure
      Type: hydrostatic
      Gradient:
      Data:
        Dataset: Unnamed Ascii Dataset
          Type: dataset_ascii_type
          Transient: no
          Array Rank:  1

--------------------------------------------------------------------------------

=+=+=+=+=+=+=+=+=+=+=+=+=+=+=+=+=+=+=+=+=+=+=+=+=+=+=+=+=+=+=+=+=+=+=+=+=+=+=+=+

  Boundary Condition

--------------------------------------------------------------------------------
          Flow Condition:   recharge
                  Region:   top
--------------------------------------------------------------------------------

  Flow Condition: recharge
    Synchronize time with update: no
    Time units: yr
    Length units: m
      Datum:

    Sub Condition: pressure
      Type: neumann
      Gradient:
      Data:
        Dataset: Unnamed Ascii Dataset
          Type: dataset_ascii_type
          Transient: no
          Array Rank:  1

--------------------------------------------------------------------------------
Default HDF5 method is used in Initialization
  Beginning setup of FLOW SNES
 number of dofs =   1, number of phases =   1
 mode = Richards: p
  Finished setting up FLOW SNES

 Requested processors and decomposition =     1, npx,y,z=   -1  -1  -1
 Actual decomposition: npx,y,z=    1   1   1


FLOW Time Stepper SNES
      maximum number of steps: 999999
constant time steps threshold: 5
       maximum number of cuts: 16
             reduction factor: 5.000000E-01
        maximum growth factor: 2.000000E+00
                 acceleration: on
       acceleration threshold: 5
       number of ramp entries: 5
                ramp entry #1: 2.0000
                ramp entry #2: 2.0000
                ramp entry #3: 2.0000
                ramp entry #4: 2.0000
                ramp entry #5: 2.0000
                ramp entry #6: 1.8000
                ramp entry #7: 1.6000
                ramp entry #8: 1.4000
                ramp entry #9: 1.2000
               ramp entry #10: 1.0000
               ramp entry #11: 1.0000
               ramp entry #12: 1.0000
               ramp entry #13: 1.0000

FLOW Newton Solver
                         atol: 1.000000E-50
                         rtol: 1.000000E-08
                         stol: 1.000000E-08
                         dtol: 1.000000E+04
                      maxnorm: 1.000000E+20
                    inftolres: -9.990000E+02
                    inftolupd: -9.990000E+02
                 inftolrelupd: -9.990000E+02
                 inftolsclres: -9.990000E+02
                     max iter: 50
                     min iter: 1
                         maxf: 10000
                  matrix type: baij
         precond. matrix type: baij
               inexact newton: off
            print convergence: on
   print detailed convergence: off
          check infinity norm: on

FLOW Linear Solver
                       solver: preonly
               preconditioner: lu
                         atol: 1.000000E-50
                         rtol: 1.000000E-05
                         dtol: 1.000000E+04
            maximum iteration: 10000

 --> write tecplot output file: HW5_1a-000.tec
      0.01 Seconds to write to Tecplot file(s)

 Finished Initialization


== RICHARDS FLOW ===============================================================
  0 2r: 1.76E-07 2x: 0.00E+00 2u: 0.00E+00 ir: 1.76E-07 iu: 0.00E+00 rsn:   0
  1 2r: 4.11E-10 2x: 1.24E+06 2u: 4.07E+01 ir: 3.65E-10 iu: 4.00E+01 rsn:   0
  2 2r: 1.95E-15 2x: 1.24E+06 2u: 7.73E-02 ir: 1.67E-15 iu: 7.49E-02 rsn:   0
  3 2r: 1.06E-16 2x: 1.24E+06 2u: 3.55E-07 ir: 2.74E-17 iu: 3.35E-07 rsn: rtol

 Step      1 Time=  1.14155E-04 Dt=  1.14155E-04 [y] conv_reason: 3
  newton =   3 [       3] linear =     3 [         3] cuts =  0 [   0]
  --> SNES Linear/Non-Linear Iterations = 3 / 3
  --> SNES Residual: 0.106496E-15 0.106496E-17 0.273761E-16
  --> max change: dpmx=   3.9933E+01

== RICHARDS FLOW ===============================================================
  0 2r: 1.43E-07 2x: 0.00E+00 2u: 0.00E+00 ir: 1.40E-07 iu: 0.00E+00 rsn:   0
  1 2r: 5.35E-10 2x: 1.24E+06 2u: 6.41E+01 ir: 4.89E-10 iu: 5.85E+01 rsn:   0
  2 2r: 7.64E-15 2x: 1.24E+06 2u: 1.67E-01 ir: 6.06E-15 iu: 1.66E-01 rsn:   0
  3 2r: 9.41E-17 2x: 1.24E+06 2u: 1.98E-06 ir: 3.00E-17 iu: 1.85E-06 rsn: rtol

 Step      2 Time=  3.42466E-04 Dt=  2.28311E-04 [y] conv_reason: 3
  newton =   3 [       6] linear =     3 [         6] cuts =  0 [   0]
  --> SNES Linear/Non-Linear Iterations = 3 / 3
  --> SNES Residual: 0.941160E-16 0.941160E-18 0.299511E-16
  --> max change: dpmx=   5.8354E+01

== RICHARDS FLOW ===============================================================
  0 2r: 1.14E-07 2x: 0.00E+00 2u: 0.00E+00 ir: 1.03E-07 iu: 0.00E+00 rsn:   0
  1 2r: 5.53E-10 2x: 1.24E+06 2u: 1.00E+02 ir: 5.33E-10 iu: 8.00E+01 rsn:   0
  2 2r: 1.71E-14 2x: 1.24E+06 2u: 3.20E-01 ir: 1.39E-14 iu: 3.08E-01 rsn:   0
  3 2r: 9.62E-17 2x: 1.24E+06 2u: 6.42E-06 ir: 2.96E-17 iu: 6.22E-06 rsn: rtol

 Step      3 Time=  7.99087E-04 Dt=  4.56621E-04 [y] conv_reason: 3
  newton =   3 [       9] linear =     3 [         9] cuts =  0 [   0]
  --> SNES Linear/Non-Linear Iterations = 3 / 3
  --> SNES Residual: 0.961929E-16 0.961929E-18 0.295716E-16
  --> max change: dpmx=   7.9650E+01

== RICHARDS FLOW ===============================================================
  0 2r: 9.09E-08 2x: 0.00E+00 2u: 0.00E+00 ir: 7.04E-08 iu: 0.00E+00 rsn:   0
  1 2r: 5.39E-10 2x: 1.24E+06 2u: 1.55E+02 ir: 4.97E-10 iu: 1.05E+02 rsn:   0
  2 2r: 2.60E-14 2x: 1.24E+06 2u: 6.16E-01 ir: 2.32E-14 iu: 5.26E-01 rsn:   0
  3 2r: 8.63E-17 2x: 1.24E+06 2u: 1.77E-05 ir: 2.95E-17 iu: 1.70E-05 rsn: rtol

 Step      4 Time=  1.71233E-03 Dt=  9.13242E-04 [y] conv_reason: 3
  newton =   3 [      12] linear =     3 [        12] cuts =  0 [   0]
  --> SNES Linear/Non-Linear Iterations = 3 / 3
  --> SNES Residual: 0.862904E-16 0.862904E-18 0.294767E-16
  --> max change: dpmx=   1.0418E+02

== RICHARDS FLOW ===============================================================
  0 2r: 7.27E-08 2x: 0.00E+00 2u: 0.00E+00 ir: 4.63E-08 iu: 0.00E+00 rsn:   0
  1 2r: 5.35E-10 2x: 1.24E+06 2u: 2.33E+02 ir: 4.20E-10 iu: 1.32E+02 rsn:   0
  2 2r: 3.92E-14 2x: 1.24E+06 2u: 1.18E+00 ir: 3.21E-14 iu: 8.55E-01 rsn:   0
  3 2r: 9.12E-17 2x: 1.24E+06 2u: 5.09E-05 ir: 2.90E-17 iu: 4.34E-05 rsn: rtol

 Step      5 Time=  3.53881E-03 Dt=  1.82648E-03 [y] conv_reason: 3
  newton =   3 [      15] linear =     3 [        15] cuts =  0 [   0]
  --> SNES Linear/Non-Linear Iterations = 3 / 3
  --> SNES Residual: 0.912182E-16 0.912182E-18 0.289956E-16
  --> max change: dpmx=   1.3140E+02

== RICHARDS FLOW ===============================================================
  0 2r: 5.73E-08 2x: 0.00E+00 2u: 0.00E+00 ir: 2.94E-08 iu: 0.00E+00 rsn:   0
  1 2r: 5.19E-10 2x: 1.24E+06 2u: 3.26E+02 ir: 3.22E-10 iu: 1.58E+02 rsn:   0
  2 2r: 5.65E-14 2x: 1.24E+06 2u: 2.11E+00 ir: 3.61E-14 iu: 1.28E+00 rsn:   0
  3 2r: 9.72E-17 2x: 1.24E+06 2u: 1.35E-04 ir: 2.66E-17 iu: 9.84E-05 rsn: rtol

 Step      6 Time=  7.19178E-03 Dt=  3.65297E-03 [y] conv_reason: 3
  newton =   3 [      18] linear =     3 [        18] cuts =  0 [   0]
  --> SNES Linear/Non-Linear Iterations = 3 / 3
  --> SNES Residual: 0.971736E-16 0.971736E-18 0.266409E-16
  --> max change: dpmx=   1.5629E+02

== RICHARDS FLOW ===============================================================
  0 2r: 4.27E-08 2x: 0.00E+00 2u: 0.00E+00 ir: 1.77E-08 iu: 0.00E+00 rsn:   0
  1 2r: 1.62E-10 2x: 1.24E+06 2u: 1.96E+02 ir: 9.26E-11 iu: 8.68E+01 rsn:   0
  2 2r: 3.86E-15 2x: 1.24E+06 2u: 6.45E-01 ir: 2.52E-15 iu: 3.54E-01 rsn:   0
  3 2r: 8.60E-17 2x: 1.24E+06 2u: 1.02E-05 ir: 2.71E-17 iu: 6.72E-06 rsn: rtol

 Step      7 Time=  1.00000E-02 Dt=  2.80822E-03 [y] conv_reason: 3
  newton =   3 [      21] linear =     3 [        21] cuts =  0 [   0]
  --> SNES Linear/Non-Linear Iterations = 3 / 3
  --> SNES Residual: 0.860455E-16 0.860455E-18 0.271152E-16
  --> max change: dpmx=   8.6409E+01

 --> write tecplot output file: HW5_1a-001.tec
      0.01 Seconds to write to Tecplot file(s)

== RICHARDS FLOW ===============================================================
  0 2r: 3.52E-08 2x: 0.00E+00 2u: 0.00E+00 ir: 1.30E-08 iu: 0.00E+00 rsn:   0
  1 2r: 2.66E-10 2x: 1.24E+06 2u: 3.17E+02 ir: 1.36E-10 iu: 1.29E+02 rsn:   0
  2 2r: 2.06E-14 2x: 1.24E+06 2u: 1.90E+00 ir: 1.26E-14 iu: 9.36E-01 rsn:   0
  3 2r: 7.73E-17 2x: 1.24E+06 2u: 9.33E-05 ir: 2.42E-17 iu: 5.42E-05 rsn: rtol

 Step      8 Time=  1.73059E-02 Dt=  7.30594E-03 [y] conv_reason: 3
  newton =   3 [      24] linear =     3 [        24] cuts =  0 [   0]
  --> SNES Linear/Non-Linear Iterations = 3 / 3
  --> SNES Residual: 0.772706E-16 0.772706E-18 0.242421E-16
  --> max change: dpmx=   1.2765E+02

== RICHARDS FLOW ===============================================================
  0 2r: 2.30E-08 2x: 0.00E+00 2u: 0.00E+00 ir: 7.58E-09 iu: 0.00E+00 rsn:   0
  1 2r: 1.88E-10 2x: 1.24E+06 2u: 2.93E+02 ir: 8.33E-11 iu: 1.12E+02 rsn:   0
  2 2r: 1.41E-14 2x: 1.24E+06 2u: 1.82E+00 ir: 7.84E-15 iu: 8.30E-01 rsn:   0
  3 2r: 8.12E-17 2x: 1.24E+06 2u: 8.93E-05 ir: 3.01E-17 iu: 4.75E-05 rsn: rtol

 Step      9 Time=  3.19178E-02 Dt=  1.46119E-02 [y] conv_reason: 3
  newton =   3 [      27] linear =     3 [        27] cuts =  0 [   0]
  --> SNES Linear/Non-Linear Iterations = 3 / 3
  --> SNES Residual: 0.811864E-16 0.811864E-18 0.301201E-16
  --> max change: dpmx=   1.1157E+02

== RICHARDS FLOW ===============================================================
  0 2r: 1.11E-08 2x: 0.00E+00 2u: 0.00E+00 ir: 3.40E-09 iu: 0.00E+00 rsn:   0
  1 2r: 6.53E-11 2x: 1.24E+06 2u: 1.78E+02 ir: 2.92E-11 iu: 6.63E+01 rsn:   0
  2 2r: 2.06E-15 2x: 1.24E+06 2u: 7.52E-01 ir: 1.07E-15 iu: 3.30E-01 rsn:   0
  3 2r: 9.61E-17 2x: 1.24E+06 2u: 1.64E-05 ir: 2.52E-17 iu: 8.32E-06 rsn: rtol

 Step     10 Time=  6.11416E-02 Dt=  2.92237E-02 [y] conv_reason: 3
  newton =   3 [      30] linear =     3 [        30] cuts =  0 [   0]
  --> SNES Linear/Non-Linear Iterations = 3 / 3
  --> SNES Residual: 0.961360E-16 0.961360E-18 0.252435E-16
  --> max change: dpmx=   6.5999E+01

== RICHARDS FLOW ===============================================================
  0 2r: 3.44E-09 2x: 0.00E+00 2u: 0.00E+00 ir: 1.02E-09 iu: 0.00E+00 rsn:   0
  1 2r: 7.06E-12 2x: 1.24E+06 2u: 5.85E+01 ir: 3.52E-12 iu: 2.16E+01 rsn:   0
  2 2r: 9.54E-17 2x: 1.24E+06 2u: 8.49E-02 ir: 3.26E-17 iu: 3.67E-02 rsn:   0
  3 2r: 8.95E-17 2x: 1.24E+06 2u: 2.14E-07 ir: 2.36E-17 iu: 1.06E-07 rsn: stol

 Step     11 Time=  1.00000E-01 Dt=  3.88584E-02 [y] conv_reason: 4
  newton =   3 [      33] linear =     3 [        33] cuts =  0 [   0]
  --> SNES Linear/Non-Linear Iterations = 3 / 3
  --> SNES Residual: 0.895338E-16 0.895338E-18 0.235890E-16
  --> max change: dpmx=   2.1560E+01

 --> write tecplot output file: HW5_1a-002.tec
      0.01 Seconds to write to Tecplot file(s)

== RICHARDS FLOW ===============================================================
  0 2r: 8.63E-10 2x: 0.00E+00 2u: 0.00E+00 ir: 2.52E-10 iu: 0.00E+00 rsn:   0
  1 2r: 4.87E-13 2x: 1.24E+06 2u: 1.54E+01 ir: 2.53E-13 iu: 5.66E+00 rsn:   0
  2 2r: 8.62E-17 2x: 1.24E+06 2u: 6.07E-03 ir: 2.61E-17 iu: 2.61E-03 rsn: stol

 Step     12 Time=  1.50000E-01 Dt=  5.00000E-02 [y] conv_reason: 4
  newton =   2 [      35] linear =     2 [        35] cuts =  0 [   0]
  --> SNES Linear/Non-Linear Iterations = 2 / 2
  --> SNES Residual: 0.862138E-16 0.862138E-18 0.261170E-16
  --> max change: dpmx=   5.6587E+00

== RICHARDS FLOW ===============================================================
  0 2r: 1.77E-10 2x: 0.00E+00 2u: 0.00E+00 ir: 5.15E-11 iu: 0.00E+00 rsn:   0
  1 2r: 2.05E-14 2x: 1.24E+06 2u: 3.16E+00 ir: 1.08E-14 iu: 1.16E+00 rsn:   0
  2 2r: 1.05E-16 2x: 1.24E+06 2u: 2.55E-04 ir: 3.13E-17 iu: 1.09E-04 rsn: stol

 Step     13 Time=  2.00000E-01 Dt=  5.00000E-02 [y] conv_reason: 4
  newton =   2 [      37] linear =     2 [        37] cuts =  0 [   0]
  --> SNES Linear/Non-Linear Iterations = 2 / 2
  --> SNES Residual: 0.105093E-15 0.105093E-17 0.312756E-16
  --> max change: dpmx=   1.1582E+00

== RICHARDS FLOW ===============================================================
  0 2r: 3.64E-11 2x: 0.00E+00 2u: 0.00E+00 ir: 1.06E-11 iu: 0.00E+00 rsn:   0
  1 2r: 8.65E-16 2x: 1.24E+06 2u: 6.47E-01 ir: 4.53E-16 iu: 2.37E-01 rsn:   0
  2 2r: 8.80E-17 2x: 1.24E+06 2u: 1.07E-05 ir: 2.82E-17 iu: 4.59E-06 rsn: stol

 Step     14 Time=  2.50000E-01 Dt=  5.00000E-02 [y] conv_reason: 4
  newton =   2 [      39] linear =     2 [        39] cuts =  0 [   0]
  --> SNES Linear/Non-Linear Iterations = 2 / 2
  --> SNES Residual: 0.880287E-16 0.880287E-18 0.282476E-16
  --> max change: dpmx=   2.3734E-01

== RICHARDS FLOW ===============================================================
  0 2r: 7.46E-12 2x: 0.00E+00 2u: 0.00E+00 ir: 2.16E-12 iu: 0.00E+00 rsn:   0
  1 2r: 9.57E-17 2x: 1.24E+06 2u: 1.33E-01 ir: 2.88E-17 iu: 4.87E-02 rsn:   0
  2 2r: 7.79E-17 2x: 1.24E+06 2u: 4.50E-07 ir: 2.05E-17 iu: 1.93E-07 rsn: stol

 Step     15 Time=  3.00000E-01 Dt=  5.00000E-02 [y] conv_reason: 4
  newton =   2 [      41] linear =     2 [        41] cuts =  0 [   0]
  --> SNES Linear/Non-Linear Iterations = 2 / 2
  --> SNES Residual: 0.779447E-16 0.779447E-18 0.204840E-16
  --> max change: dpmx=   4.8655E-02

== RICHARDS FLOW ===============================================================
  0 2r: 1.53E-12 2x: 0.00E+00 2u: 0.00E+00 ir: 4.43E-13 iu: 0.00E+00 rsn:   0
  1 2r: 9.60E-17 2x: 1.24E+06 2u: 2.72E-02 ir: 3.23E-17 iu: 9.98E-03 rsn:   0
  2 2r: 8.41E-17 2x: 1.24E+06 2u: 1.89E-08 ir: 2.53E-17 iu: 8.10E-09 rsn: stol

 Step     16 Time=  3.50000E-01 Dt=  5.00000E-02 [y] conv_reason: 4
  newton =   2 [      43] linear =     2 [        43] cuts =  0 [   0]
  --> SNES Linear/Non-Linear Iterations = 2 / 2
  --> SNES Residual: 0.841414E-16 0.841414E-18 0.252667E-16
  --> max change: dpmx=   9.9752E-03

== RICHARDS FLOW ===============================================================
  0 2r: 3.14E-13 2x: 0.00E+00 2u: 0.00E+00 ir: 9.09E-14 iu: 0.00E+00 rsn:   0
  1 2r: 8.57E-17 2x: 1.24E+06 2u: 5.58E-03 ir: 2.92E-17 iu: 2.05E-03 rsn: stol

 Step     17 Time=  4.00000E-01 Dt=  5.00000E-02 [y] conv_reason: 4
  newton =   1 [      44] linear =     1 [        44] cuts =  0 [   0]
  --> SNES Linear/Non-Linear Iterations = 1 / 1
  --> SNES Residual: 0.857143E-16 0.857143E-18 0.291591E-16
  --> max change: dpmx=   2.0452E-03

== RICHARDS FLOW ===============================================================
  0 2r: 6.43E-14 2x: 0.00E+00 2u: 0.00E+00 ir: 1.86E-14 iu: 0.00E+00 rsn:   0
  1 2r: 8.26E-17 2x: 1.24E+06 2u: 1.14E-03 ir: 2.85E-17 iu: 4.19E-04 rsn: stol

 Step     18 Time=  4.50000E-01 Dt=  5.00000E-02 [y] conv_reason: 4
  newton =   1 [      45] linear =     1 [        45] cuts =  0 [   0]
  --> SNES Linear/Non-Linear Iterations = 1 / 1
  --> SNES Residual: 0.825903E-16 0.825903E-18 0.284816E-16
  --> max change: dpmx=   4.1933E-04

== RICHARDS FLOW ===============================================================
  0 2r: 1.32E-14 2x: 0.00E+00 2u: 0.00E+00 ir: 3.82E-15 iu: 0.00E+00 rsn:   0
  1 2r: 8.03E-17 2x: 1.24E+06 2u: 2.34E-04 ir: 2.75E-17 iu: 8.60E-05 rsn: stol

 Step     19 Time=  5.00000E-01 Dt=  5.00000E-02 [y] conv_reason: 4
  newton =   1 [      46] linear =     1 [        46] cuts =  0 [   0]
  --> SNES Linear/Non-Linear Iterations = 1 / 1
  --> SNES Residual: 0.803141E-16 0.803141E-18 0.275310E-16
  --> max change: dpmx=   8.5975E-05

== RICHARDS FLOW ===============================================================
  0 2r: 2.70E-15 2x: 0.00E+00 2u: 0.00E+00 ir: 7.84E-16 iu: 0.00E+00 rsn:   0
  1 2r: 9.86E-17 2x: 1.24E+06 2u: 4.81E-05 ir: 3.04E-17 iu: 1.76E-05 rsn: stol

 Step     20 Time=  5.50000E-01 Dt=  5.00000E-02 [y] conv_reason: 4
  newton =   1 [      47] linear =     1 [        47] cuts =  0 [   0]
  --> SNES Linear/Non-Linear Iterations = 1 / 1
  --> SNES Residual: 0.985776E-16 0.985776E-18 0.304131E-16
  --> max change: dpmx=   1.7628E-05

== RICHARDS FLOW ===============================================================
  0 2r: 5.63E-16 2x: 0.00E+00 2u: 0.00E+00 ir: 1.61E-16 iu: 0.00E+00 rsn:   0
  1 2r: 8.21E-17 2x: 1.24E+06 2u: 9.86E-06 ir: 2.89E-17 iu: 3.61E-06 rsn: stol

 Step     21 Time=  6.00000E-01 Dt=  5.00000E-02 [y] conv_reason: 4
  newton =   1 [      48] linear =     1 [        48] cuts =  0 [   0]
  --> SNES Linear/Non-Linear Iterations = 1 / 1
  --> SNES Residual: 0.821460E-16 0.821460E-18 0.289435E-16
  --> max change: dpmx=   3.6142E-06

== RICHARDS FLOW ===============================================================
  0 2r: 1.40E-16 2x: 0.00E+00 2u: 0.00E+00 ir: 3.29E-17 iu: 0.00E+00 rsn:   0
  1 2r: 7.74E-17 2x: 1.24E+06 2u: 2.02E-06 ir: 2.79E-17 iu: 7.41E-07 rsn: stol

 Step     22 Time=  6.50000E-01 Dt=  5.00000E-02 [y] conv_reason: 4
  newton =   1 [      49] linear =     1 [        49] cuts =  0 [   0]
  --> SNES Linear/Non-Linear Iterations = 1 / 1
  --> SNES Residual: 0.773859E-16 0.773859E-18 0.279246E-16
  --> max change: dpmx=   7.4103E-07

== RICHARDS FLOW ===============================================================
  0 2r: 8.08E-17 2x: 0.00E+00 2u: 0.00E+00 ir: 2.79E-17 iu: 0.00E+00 rsn:   0
  1 2r: 7.98E-17 2x: 1.24E+06 2u: 4.14E-07 ir: 2.52E-17 iu: 1.52E-07 rsn: stol

 Step     23 Time=  7.00000E-01 Dt=  5.00000E-02 [y] conv_reason: 4
  newton =   1 [      50] linear =     1 [        50] cuts =  0 [   0]
  --> SNES Linear/Non-Linear Iterations = 1 / 1
  --> SNES Residual: 0.798378E-16 0.798378E-18 0.252362E-16
  --> max change: dpmx=   1.5194E-07

== RICHARDS FLOW ===============================================================
  0 2r: 8.00E-17 2x: 0.00E+00 2u: 0.00E+00 ir: 2.52E-17 iu: 0.00E+00 rsn:   0
  1 2r: 7.92E-17 2x: 1.24E+06 2u: 8.49E-08 ir: 2.13E-17 iu: 3.12E-08 rsn: stol

 Step     24 Time=  7.50000E-01 Dt=  5.00000E-02 [y] conv_reason: 4
  newton =   1 [      51] linear =     1 [        51] cuts =  0 [   0]
  --> SNES Linear/Non-Linear Iterations = 1 / 1
  --> SNES Residual: 0.791831E-16 0.791831E-18 0.212792E-16
  --> max change: dpmx=   3.1156E-08

== RICHARDS FLOW ===============================================================
  0 2r: 7.92E-17 2x: 0.00E+00 2u: 0.00E+00 ir: 2.13E-17 iu: 0.00E+00 rsn:   0
  1 2r: 8.44E-17 2x: 1.24E+06 2u: 1.74E-08 ir: 3.04E-17 iu: 6.39E-09 rsn: stol

 Step     25 Time=  8.00000E-01 Dt=  5.00000E-02 [y] conv_reason: 4
  newton =   1 [      52] linear =     1 [        52] cuts =  0 [   0]
  --> SNES Linear/Non-Linear Iterations = 1 / 1
  --> SNES Residual: 0.844285E-16 0.844285E-18 0.304121E-16
  --> max change: dpmx=   6.3883E-09

== RICHARDS FLOW ===============================================================
  0 2r: 8.44E-17 2x: 0.00E+00 2u: 0.00E+00 ir: 3.04E-17 iu: 0.00E+00 rsn:   0
  1 2r: 9.08E-17 2x: 1.24E+06 2u: 3.57E-09 ir: 3.05E-17 iu: 1.31E-09 rsn: stol

 Step     26 Time=  8.50000E-01 Dt=  5.00000E-02 [y] conv_reason: 4
  newton =   1 [      53] linear =     1 [        53] cuts =  0 [   0]
  --> SNES Linear/Non-Linear Iterations = 1 / 1
  --> SNES Residual: 0.907759E-16 0.907759E-18 0.305248E-16
  --> max change: dpmx=   1.3097E-09

== RICHARDS FLOW ===============================================================
  0 2r: 9.08E-17 2x: 0.00E+00 2u: 0.00E+00 ir: 3.05E-17 iu: 0.00E+00 rsn:   0
  1 2r: 8.36E-17 2x: 1.24E+06 2u: 7.35E-10 ir: 3.10E-17 iu: 2.71E-10 rsn: stol

 Step     27 Time=  9.00000E-01 Dt=  5.00000E-02 [y] conv_reason: 4
  newton =   1 [      54] linear =     1 [        54] cuts =  0 [   0]
  --> SNES Linear/Non-Linear Iterations = 1 / 1
  --> SNES Residual: 0.835821E-16 0.835821E-18 0.310446E-16
  --> max change: dpmx=   2.7649E-10

== RICHARDS FLOW ===============================================================
  0 2r: 8.36E-17 2x: 0.00E+00 2u: 0.00E+00 ir: 3.10E-17 iu: 0.00E+00 rsn:   0
  1 2r: 7.77E-17 2x: 1.24E+06 2u: 1.63E-10 ir: 1.93E-17 iu: 6.04E-11 rsn: stol

 Step     28 Time=  9.50000E-01 Dt=  5.00000E-02 [y] conv_reason: 4
  newton =   1 [      55] linear =     1 [        55] cuts =  0 [   0]
  --> SNES Linear/Non-Linear Iterations = 1 / 1
  --> SNES Residual: 0.776500E-16 0.776500E-18 0.192692E-16
  --> max change: dpmx=   5.8208E-11

== RICHARDS FLOW ===============================================================
  0 2r: 7.76E-17 2x: 0.00E+00 2u: 0.00E+00 ir: 1.93E-17 iu: 0.00E+00 rsn:   0
  1 2r: 8.17E-17 2x: 1.24E+06 2u: 7.31E-11 ir: 2.55E-17 iu: 1.86E-11 rsn: stol

 Step     29 Time=  1.00000E+00 Dt=  5.00000E-02 [y] conv_reason: 4
  newton =   1 [      56] linear =     1 [        56] cuts =  0 [   0]
  --> SNES Linear/Non-Linear Iterations = 1 / 1
  --> SNES Residual: 0.817357E-16 0.817357E-18 0.254527E-16
  --> max change: dpmx=   2.9104E-11

 --> write tecplot output file: HW5_1a-003.tec
      0.01 Seconds to write to Tecplot file(s)

== RICHARDS FLOW ===============================================================
  0 2r: 8.17E-17 2x: 0.00E+00 2u: 0.00E+00 ir: 2.55E-17 iu: 0.00E+00 rsn:   0
  1 2r: 8.17E-17 2x: 1.24E+06 2u: 6.52E-11 ir: 2.55E-17 iu: 1.43E-11 rsn: stol

 Step     30 Time=  1.05000E+00 Dt=  5.00000E-02 [y] conv_reason: 4
  newton =   1 [      57] linear =     1 [        57] cuts =  0 [   0]
  --> SNES Linear/Non-Linear Iterations = 1 / 1
  --> SNES Residual: 0.817357E-16 0.817357E-18 0.254527E-16
  --> max change: dpmx=   0.0000E+00

== RICHARDS FLOW ===============================================================
  0 2r: 8.17E-17 2x: 0.00E+00 2u: 0.00E+00 ir: 2.55E-17 iu: 0.00E+00 rsn:   0
  1 2r: 8.17E-17 2x: 1.24E+06 2u: 6.52E-11 ir: 2.55E-17 iu: 1.43E-11 rsn: stol

 Step     31 Time=  1.10000E+00 Dt=  5.00000E-02 [y] conv_reason: 4
  newton =   1 [      58] linear =     1 [        58] cuts =  0 [   0]
  --> SNES Linear/Non-Linear Iterations = 1 / 1
  --> SNES Residual: 0.817357E-16 0.817357E-18 0.254527E-16
  --> max change: dpmx=   0.0000E+00

== RICHARDS FLOW ===============================================================
  0 2r: 8.17E-17 2x: 0.00E+00 2u: 0.00E+00 ir: 2.55E-17 iu: 0.00E+00 rsn:   0
  1 2r: 8.17E-17 2x: 1.24E+06 2u: 6.52E-11 ir: 2.55E-17 iu: 1.43E-11 rsn: stol

 Step     32 Time=  1.15000E+00 Dt=  5.00000E-02 [y] conv_reason: 4
  newton =   1 [      59] linear =     1 [        59] cuts =  0 [   0]
  --> SNES Linear/Non-Linear Iterations = 1 / 1
  --> SNES Residual: 0.817357E-16 0.817357E-18 0.254527E-16
  --> max change: dpmx=   0.0000E+00

== RICHARDS FLOW ===============================================================
  0 2r: 8.17E-17 2x: 0.00E+00 2u: 0.00E+00 ir: 2.55E-17 iu: 0.00E+00 rsn:   0
  1 2r: 8.17E-17 2x: 1.24E+06 2u: 6.52E-11 ir: 2.55E-17 iu: 1.43E-11 rsn: stol

 Step     33 Time=  1.20000E+00 Dt=  5.00000E-02 [y] conv_reason: 4
  newton =   1 [      60] linear =     1 [        60] cuts =  0 [   0]
  --> SNES Linear/Non-Linear Iterations = 1 / 1
  --> SNES Residual: 0.817357E-16 0.817357E-18 0.254527E-16
  --> max change: dpmx=   0.0000E+00

== RICHARDS FLOW ===============================================================
  0 2r: 8.17E-17 2x: 0.00E+00 2u: 0.00E+00 ir: 2.55E-17 iu: 0.00E+00 rsn:   0
  1 2r: 8.17E-17 2x: 1.24E+06 2u: 6.52E-11 ir: 2.55E-17 iu: 1.43E-11 rsn: stol

 Step     34 Time=  1.25000E+00 Dt=  5.00000E-02 [y] conv_reason: 4
  newton =   1 [      61] linear =     1 [        61] cuts =  0 [   0]
  --> SNES Linear/Non-Linear Iterations = 1 / 1
  --> SNES Residual: 0.817357E-16 0.817357E-18 0.254527E-16
  --> max change: dpmx=   0.0000E+00

== RICHARDS FLOW ===============================================================
  0 2r: 8.17E-17 2x: 0.00E+00 2u: 0.00E+00 ir: 2.55E-17 iu: 0.00E+00 rsn:   0
  1 2r: 8.17E-17 2x: 1.24E+06 2u: 6.52E-11 ir: 2.55E-17 iu: 1.43E-11 rsn: stol

 Step     35 Time=  1.30000E+00 Dt=  5.00000E-02 [y] conv_reason: 4
  newton =   1 [      62] linear =     1 [        62] cuts =  0 [   0]
  --> SNES Linear/Non-Linear Iterations = 1 / 1
  --> SNES Residual: 0.817357E-16 0.817357E-18 0.254527E-16
  --> max change: dpmx=   0.0000E+00

== RICHARDS FLOW ===============================================================
  0 2r: 8.17E-17 2x: 0.00E+00 2u: 0.00E+00 ir: 2.55E-17 iu: 0.00E+00 rsn:   0
  1 2r: 8.17E-17 2x: 1.24E+06 2u: 6.52E-11 ir: 2.55E-17 iu: 1.43E-11 rsn: stol

 Step     36 Time=  1.35000E+00 Dt=  5.00000E-02 [y] conv_reason: 4
  newton =   1 [      63] linear =     1 [        63] cuts =  0 [   0]
  --> SNES Linear/Non-Linear Iterations = 1 / 1
  --> SNES Residual: 0.817357E-16 0.817357E-18 0.254527E-16
  --> max change: dpmx=   0.0000E+00

== RICHARDS FLOW ===============================================================
  0 2r: 8.17E-17 2x: 0.00E+00 2u: 0.00E+00 ir: 2.55E-17 iu: 0.00E+00 rsn:   0
  1 2r: 8.17E-17 2x: 1.24E+06 2u: 6.52E-11 ir: 2.55E-17 iu: 1.43E-11 rsn: stol

 Step     37 Time=  1.40000E+00 Dt=  5.00000E-02 [y] conv_reason: 4
  newton =   1 [      64] linear =     1 [        64] cuts =  0 [   0]
  --> SNES Linear/Non-Linear Iterations = 1 / 1
  --> SNES Residual: 0.817357E-16 0.817357E-18 0.254527E-16
  --> max change: dpmx=   0.0000E+00

== RICHARDS FLOW ===============================================================
  0 2r: 8.17E-17 2x: 0.00E+00 2u: 0.00E+00 ir: 2.55E-17 iu: 0.00E+00 rsn:   0
  1 2r: 8.17E-17 2x: 1.24E+06 2u: 6.52E-11 ir: 2.55E-17 iu: 1.43E-11 rsn: stol

 Step     38 Time=  1.45000E+00 Dt=  5.00000E-02 [y] conv_reason: 4
  newton =   1 [      65] linear =     1 [        65] cuts =  0 [   0]
  --> SNES Linear/Non-Linear Iterations = 1 / 1
  --> SNES Residual: 0.817357E-16 0.817357E-18 0.254527E-16
  --> max change: dpmx=   0.0000E+00

== RICHARDS FLOW ===============================================================
  0 2r: 8.17E-17 2x: 0.00E+00 2u: 0.00E+00 ir: 2.55E-17 iu: 0.00E+00 rsn:   0
  1 2r: 8.17E-17 2x: 1.24E+06 2u: 6.52E-11 ir: 2.55E-17 iu: 1.43E-11 rsn: stol

 Step     39 Time=  1.50000E+00 Dt=  5.00000E-02 [y] conv_reason: 4
  newton =   1 [      66] linear =     1 [        66] cuts =  0 [   0]
  --> SNES Linear/Non-Linear Iterations = 1 / 1
  --> SNES Residual: 0.817357E-16 0.817357E-18 0.254527E-16
  --> max change: dpmx=   0.0000E+00

== RICHARDS FLOW ===============================================================
  0 2r: 8.17E-17 2x: 0.00E+00 2u: 0.00E+00 ir: 2.55E-17 iu: 0.00E+00 rsn:   0
  1 2r: 8.17E-17 2x: 1.24E+06 2u: 6.52E-11 ir: 2.55E-17 iu: 1.43E-11 rsn: stol

 Step     40 Time=  1.55000E+00 Dt=  5.00000E-02 [y] conv_reason: 4
  newton =   1 [      67] linear =     1 [        67] cuts =  0 [   0]
  --> SNES Linear/Non-Linear Iterations = 1 / 1
  --> SNES Residual: 0.817357E-16 0.817357E-18 0.254527E-16
  --> max change: dpmx=   0.0000E+00

== RICHARDS FLOW ===============================================================
  0 2r: 8.17E-17 2x: 0.00E+00 2u: 0.00E+00 ir: 2.55E-17 iu: 0.00E+00 rsn:   0
  1 2r: 8.17E-17 2x: 1.24E+06 2u: 6.52E-11 ir: 2.55E-17 iu: 1.43E-11 rsn: stol

 Step     41 Time=  1.60000E+00 Dt=  5.00000E-02 [y] conv_reason: 4
  newton =   1 [      68] linear =     1 [        68] cuts =  0 [   0]
  --> SNES Linear/Non-Linear Iterations = 1 / 1
  --> SNES Residual: 0.817357E-16 0.817357E-18 0.254527E-16
  --> max change: dpmx=   0.0000E+00

== RICHARDS FLOW ===============================================================
  0 2r: 8.17E-17 2x: 0.00E+00 2u: 0.00E+00 ir: 2.55E-17 iu: 0.00E+00 rsn:   0
  1 2r: 8.17E-17 2x: 1.24E+06 2u: 6.52E-11 ir: 2.55E-17 iu: 1.43E-11 rsn: stol

 Step     42 Time=  1.65000E+00 Dt=  5.00000E-02 [y] conv_reason: 4
  newton =   1 [      69] linear =     1 [        69] cuts =  0 [   0]
  --> SNES Linear/Non-Linear Iterations = 1 / 1
  --> SNES Residual: 0.817357E-16 0.817357E-18 0.254527E-16
  --> max change: dpmx=   0.0000E+00

== RICHARDS FLOW ===============================================================
  0 2r: 8.17E-17 2x: 0.00E+00 2u: 0.00E+00 ir: 2.55E-17 iu: 0.00E+00 rsn:   0
  1 2r: 8.17E-17 2x: 1.24E+06 2u: 6.52E-11 ir: 2.55E-17 iu: 1.43E-11 rsn: stol

 Step     43 Time=  1.70000E+00 Dt=  5.00000E-02 [y] conv_reason: 4
  newton =   1 [      70] linear =     1 [        70] cuts =  0 [   0]
  --> SNES Linear/Non-Linear Iterations = 1 / 1
  --> SNES Residual: 0.817357E-16 0.817357E-18 0.254527E-16
  --> max change: dpmx=   0.0000E+00

== RICHARDS FLOW ===============================================================
  0 2r: 8.17E-17 2x: 0.00E+00 2u: 0.00E+00 ir: 2.55E-17 iu: 0.00E+00 rsn:   0
  1 2r: 8.17E-17 2x: 1.24E+06 2u: 6.52E-11 ir: 2.55E-17 iu: 1.43E-11 rsn: stol

 Step     44 Time=  1.75000E+00 Dt=  5.00000E-02 [y] conv_reason: 4
  newton =   1 [      71] linear =     1 [        71] cuts =  0 [   0]
  --> SNES Linear/Non-Linear Iterations = 1 / 1
  --> SNES Residual: 0.817357E-16 0.817357E-18 0.254527E-16
  --> max change: dpmx=   0.0000E+00

== RICHARDS FLOW ===============================================================
  0 2r: 8.17E-17 2x: 0.00E+00 2u: 0.00E+00 ir: 2.55E-17 iu: 0.00E+00 rsn:   0
  1 2r: 8.17E-17 2x: 1.24E+06 2u: 6.52E-11 ir: 2.55E-17 iu: 1.43E-11 rsn: stol

 Step     45 Time=  1.80000E+00 Dt=  5.00000E-02 [y] conv_reason: 4
  newton =   1 [      72] linear =     1 [        72] cuts =  0 [   0]
  --> SNES Linear/Non-Linear Iterations = 1 / 1
  --> SNES Residual: 0.817357E-16 0.817357E-18 0.254527E-16
  --> max change: dpmx=   0.0000E+00

== RICHARDS FLOW ===============================================================
  0 2r: 8.17E-17 2x: 0.00E+00 2u: 0.00E+00 ir: 2.55E-17 iu: 0.00E+00 rsn:   0
  1 2r: 8.17E-17 2x: 1.24E+06 2u: 6.52E-11 ir: 2.55E-17 iu: 1.43E-11 rsn: stol

 Step     46 Time=  1.85000E+00 Dt=  5.00000E-02 [y] conv_reason: 4
  newton =   1 [      73] linear =     1 [        73] cuts =  0 [   0]
  --> SNES Linear/Non-Linear Iterations = 1 / 1
  --> SNES Residual: 0.817357E-16 0.817357E-18 0.254527E-16
  --> max change: dpmx=   0.0000E+00

== RICHARDS FLOW ===============================================================
  0 2r: 8.17E-17 2x: 0.00E+00 2u: 0.00E+00 ir: 2.55E-17 iu: 0.00E+00 rsn:   0
  1 2r: 8.17E-17 2x: 1.24E+06 2u: 6.52E-11 ir: 2.55E-17 iu: 1.43E-11 rsn: stol

 Step     47 Time=  1.90000E+00 Dt=  5.00000E-02 [y] conv_reason: 4
  newton =   1 [      74] linear =     1 [        74] cuts =  0 [   0]
  --> SNES Linear/Non-Linear Iterations = 1 / 1
  --> SNES Residual: 0.817357E-16 0.817357E-18 0.254527E-16
  --> max change: dpmx=   0.0000E+00

== RICHARDS FLOW ===============================================================
  0 2r: 8.17E-17 2x: 0.00E+00 2u: 0.00E+00 ir: 2.55E-17 iu: 0.00E+00 rsn:   0
  1 2r: 8.17E-17 2x: 1.24E+06 2u: 6.52E-11 ir: 2.55E-17 iu: 1.43E-11 rsn: stol

 Step     48 Time=  1.95000E+00 Dt=  5.00000E-02 [y] conv_reason: 4
  newton =   1 [      75] linear =     1 [        75] cuts =  0 [   0]
  --> SNES Linear/Non-Linear Iterations = 1 / 1
  --> SNES Residual: 0.817357E-16 0.817357E-18 0.254527E-16
  --> max change: dpmx=   0.0000E+00

== RICHARDS FLOW ===============================================================
  0 2r: 8.17E-17 2x: 0.00E+00 2u: 0.00E+00 ir: 2.55E-17 iu: 0.00E+00 rsn:   0
  1 2r: 8.17E-17 2x: 1.24E+06 2u: 6.52E-11 ir: 2.55E-17 iu: 1.43E-11 rsn: stol

 Step     49 Time=  2.00000E+00 Dt=  5.00000E-02 [y] conv_reason: 4
  newton =   1 [      76] linear =     1 [        76] cuts =  0 [   0]
  --> SNES Linear/Non-Linear Iterations = 1 / 1
  --> SNES Residual: 0.817357E-16 0.817357E-18 0.254527E-16
  --> max change: dpmx=   0.0000E+00

== RICHARDS FLOW ===============================================================
  0 2r: 8.17E-17 2x: 0.00E+00 2u: 0.00E+00 ir: 2.55E-17 iu: 0.00E+00 rsn:   0
  1 2r: 8.17E-17 2x: 1.24E+06 2u: 6.52E-11 ir: 2.55E-17 iu: 1.43E-11 rsn: stol

 Step     50 Time=  2.05000E+00 Dt=  5.00000E-02 [y] conv_reason: 4
  newton =   1 [      77] linear =     1 [        77] cuts =  0 [   0]
  --> SNES Linear/Non-Linear Iterations = 1 / 1
  --> SNES Residual: 0.817357E-16 0.817357E-18 0.254527E-16
  --> max change: dpmx=   0.0000E+00

== RICHARDS FLOW ===============================================================
  0 2r: 8.17E-17 2x: 0.00E+00 2u: 0.00E+00 ir: 2.55E-17 iu: 0.00E+00 rsn:   0
  1 2r: 8.17E-17 2x: 1.24E+06 2u: 6.52E-11 ir: 2.55E-17 iu: 1.43E-11 rsn: stol

 Step     51 Time=  2.10000E+00 Dt=  5.00000E-02 [y] conv_reason: 4
  newton =   1 [      78] linear =     1 [        78] cuts =  0 [   0]
  --> SNES Linear/Non-Linear Iterations = 1 / 1
  --> SNES Residual: 0.817357E-16 0.817357E-18 0.254527E-16
  --> max change: dpmx=   0.0000E+00

== RICHARDS FLOW ===============================================================
  0 2r: 8.17E-17 2x: 0.00E+00 2u: 0.00E+00 ir: 2.55E-17 iu: 0.00E+00 rsn:   0
  1 2r: 8.17E-17 2x: 1.24E+06 2u: 6.52E-11 ir: 2.55E-17 iu: 1.43E-11 rsn: stol

 Step     52 Time=  2.15000E+00 Dt=  5.00000E-02 [y] conv_reason: 4
  newton =   1 [      79] linear =     1 [        79] cuts =  0 [   0]
  --> SNES Linear/Non-Linear Iterations = 1 / 1
  --> SNES Residual: 0.817357E-16 0.817357E-18 0.254527E-16
  --> max change: dpmx=   0.0000E+00

== RICHARDS FLOW ===============================================================
  0 2r: 8.17E-17 2x: 0.00E+00 2u: 0.00E+00 ir: 2.55E-17 iu: 0.00E+00 rsn:   0
  1 2r: 8.17E-17 2x: 1.24E+06 2u: 6.52E-11 ir: 2.55E-17 iu: 1.43E-11 rsn: stol

 Step     53 Time=  2.20000E+00 Dt=  5.00000E-02 [y] conv_reason: 4
  newton =   1 [      80] linear =     1 [        80] cuts =  0 [   0]
  --> SNES Linear/Non-Linear Iterations = 1 / 1
  --> SNES Residual: 0.817357E-16 0.817357E-18 0.254527E-16
  --> max change: dpmx=   0.0000E+00

== RICHARDS FLOW ===============================================================
  0 2r: 8.17E-17 2x: 0.00E+00 2u: 0.00E+00 ir: 2.55E-17 iu: 0.00E+00 rsn:   0
  1 2r: 8.17E-17 2x: 1.24E+06 2u: 6.52E-11 ir: 2.55E-17 iu: 1.43E-11 rsn: stol

 Step     54 Time=  2.25000E+00 Dt=  5.00000E-02 [y] conv_reason: 4
  newton =   1 [      81] linear =     1 [        81] cuts =  0 [   0]
  --> SNES Linear/Non-Linear Iterations = 1 / 1
  --> SNES Residual: 0.817357E-16 0.817357E-18 0.254527E-16
  --> max change: dpmx=   0.0000E+00

== RICHARDS FLOW ===============================================================
  0 2r: 8.17E-17 2x: 0.00E+00 2u: 0.00E+00 ir: 2.55E-17 iu: 0.00E+00 rsn:   0
  1 2r: 8.17E-17 2x: 1.24E+06 2u: 6.52E-11 ir: 2.55E-17 iu: 1.43E-11 rsn: stol

 Step     55 Time=  2.30000E+00 Dt=  5.00000E-02 [y] conv_reason: 4
  newton =   1 [      82] linear =     1 [        82] cuts =  0 [   0]
  --> SNES Linear/Non-Linear Iterations = 1 / 1
  --> SNES Residual: 0.817357E-16 0.817357E-18 0.254527E-16
  --> max change: dpmx=   0.0000E+00

== RICHARDS FLOW ===============================================================
  0 2r: 8.17E-17 2x: 0.00E+00 2u: 0.00E+00 ir: 2.55E-17 iu: 0.00E+00 rsn:   0
  1 2r: 8.17E-17 2x: 1.24E+06 2u: 6.52E-11 ir: 2.55E-17 iu: 1.43E-11 rsn: stol

 Step     56 Time=  2.35000E+00 Dt=  5.00000E-02 [y] conv_reason: 4
  newton =   1 [      83] linear =     1 [        83] cuts =  0 [   0]
  --> SNES Linear/Non-Linear Iterations = 1 / 1
  --> SNES Residual: 0.817357E-16 0.817357E-18 0.254527E-16
  --> max change: dpmx=   0.0000E+00

== RICHARDS FLOW ===============================================================
  0 2r: 8.17E-17 2x: 0.00E+00 2u: 0.00E+00 ir: 2.55E-17 iu: 0.00E+00 rsn:   0
  1 2r: 8.17E-17 2x: 1.24E+06 2u: 6.52E-11 ir: 2.55E-17 iu: 1.43E-11 rsn: stol

 Step     57 Time=  2.40000E+00 Dt=  5.00000E-02 [y] conv_reason: 4
  newton =   1 [      84] linear =     1 [        84] cuts =  0 [   0]
  --> SNES Linear/Non-Linear Iterations = 1 / 1
  --> SNES Residual: 0.817357E-16 0.817357E-18 0.254527E-16
  --> max change: dpmx=   0.0000E+00

== RICHARDS FLOW ===============================================================
  0 2r: 8.17E-17 2x: 0.00E+00 2u: 0.00E+00 ir: 2.55E-17 iu: 0.00E+00 rsn:   0
  1 2r: 8.17E-17 2x: 1.24E+06 2u: 6.52E-11 ir: 2.55E-17 iu: 1.43E-11 rsn: stol

 Step     58 Time=  2.45000E+00 Dt=  5.00000E-02 [y] conv_reason: 4
  newton =   1 [      85] linear =     1 [        85] cuts =  0 [   0]
  --> SNES Linear/Non-Linear Iterations = 1 / 1
  --> SNES Residual: 0.817357E-16 0.817357E-18 0.254527E-16
  --> max change: dpmx=   0.0000E+00

== RICHARDS FLOW ===============================================================
  0 2r: 8.17E-17 2x: 0.00E+00 2u: 0.00E+00 ir: 2.55E-17 iu: 0.00E+00 rsn:   0
  1 2r: 8.17E-17 2x: 1.24E+06 2u: 6.52E-11 ir: 2.55E-17 iu: 1.43E-11 rsn: stol

 Step     59 Time=  2.50000E+00 Dt=  5.00000E-02 [y] conv_reason: 4
  newton =   1 [      86] linear =     1 [        86] cuts =  0 [   0]
  --> SNES Linear/Non-Linear Iterations = 1 / 1
  --> SNES Residual: 0.817357E-16 0.817357E-18 0.254527E-16
  --> max change: dpmx=   0.0000E+00

== RICHARDS FLOW ===============================================================
  0 2r: 8.17E-17 2x: 0.00E+00 2u: 0.00E+00 ir: 2.55E-17 iu: 0.00E+00 rsn:   0
  1 2r: 8.17E-17 2x: 1.24E+06 2u: 6.52E-11 ir: 2.55E-17 iu: 1.43E-11 rsn: stol

 Step     60 Time=  2.55000E+00 Dt=  5.00000E-02 [y] conv_reason: 4
  newton =   1 [      87] linear =     1 [        87] cuts =  0 [   0]
  --> SNES Linear/Non-Linear Iterations = 1 / 1
  --> SNES Residual: 0.817357E-16 0.817357E-18 0.254527E-16
  --> max change: dpmx=   0.0000E+00

== RICHARDS FLOW ===============================================================
  0 2r: 8.17E-17 2x: 0.00E+00 2u: 0.00E+00 ir: 2.55E-17 iu: 0.00E+00 rsn:   0
  1 2r: 8.17E-17 2x: 1.24E+06 2u: 6.52E-11 ir: 2.55E-17 iu: 1.43E-11 rsn: stol

 Step     61 Time=  2.60000E+00 Dt=  5.00000E-02 [y] conv_reason: 4
  newton =   1 [      88] linear =     1 [        88] cuts =  0 [   0]
  --> SNES Linear/Non-Linear Iterations = 1 / 1
  --> SNES Residual: 0.817357E-16 0.817357E-18 0.254527E-16
  --> max change: dpmx=   0.0000E+00

== RICHARDS FLOW ===============================================================
  0 2r: 8.17E-17 2x: 0.00E+00 2u: 0.00E+00 ir: 2.55E-17 iu: 0.00E+00 rsn:   0
  1 2r: 8.17E-17 2x: 1.24E+06 2u: 6.52E-11 ir: 2.55E-17 iu: 1.43E-11 rsn: stol

 Step     62 Time=  2.65000E+00 Dt=  5.00000E-02 [y] conv_reason: 4
  newton =   1 [      89] linear =     1 [        89] cuts =  0 [   0]
  --> SNES Linear/Non-Linear Iterations = 1 / 1
  --> SNES Residual: 0.817357E-16 0.817357E-18 0.254527E-16
  --> max change: dpmx=   0.0000E+00

== RICHARDS FLOW ===============================================================
  0 2r: 8.17E-17 2x: 0.00E+00 2u: 0.00E+00 ir: 2.55E-17 iu: 0.00E+00 rsn:   0
  1 2r: 8.17E-17 2x: 1.24E+06 2u: 6.52E-11 ir: 2.55E-17 iu: 1.43E-11 rsn: stol

 Step     63 Time=  2.70000E+00 Dt=  5.00000E-02 [y] conv_reason: 4
  newton =   1 [      90] linear =     1 [        90] cuts =  0 [   0]
  --> SNES Linear/Non-Linear Iterations = 1 / 1
  --> SNES Residual: 0.817357E-16 0.817357E-18 0.254527E-16
  --> max change: dpmx=   0.0000E+00

== RICHARDS FLOW ===============================================================
  0 2r: 8.17E-17 2x: 0.00E+00 2u: 0.00E+00 ir: 2.55E-17 iu: 0.00E+00 rsn:   0
  1 2r: 8.17E-17 2x: 1.24E+06 2u: 6.52E-11 ir: 2.55E-17 iu: 1.43E-11 rsn: stol

 Step     64 Time=  2.75000E+00 Dt=  5.00000E-02 [y] conv_reason: 4
  newton =   1 [      91] linear =     1 [        91] cuts =  0 [   0]
  --> SNES Linear/Non-Linear Iterations = 1 / 1
  --> SNES Residual: 0.817357E-16 0.817357E-18 0.254527E-16
  --> max change: dpmx=   0.0000E+00

== RICHARDS FLOW ===============================================================
  0 2r: 8.17E-17 2x: 0.00E+00 2u: 0.00E+00 ir: 2.55E-17 iu: 0.00E+00 rsn:   0
  1 2r: 8.17E-17 2x: 1.24E+06 2u: 6.52E-11 ir: 2.55E-17 iu: 1.43E-11 rsn: stol

 Step     65 Time=  2.80000E+00 Dt=  5.00000E-02 [y] conv_reason: 4
  newton =   1 [      92] linear =     1 [        92] cuts =  0 [   0]
  --> SNES Linear/Non-Linear Iterations = 1 / 1
  --> SNES Residual: 0.817357E-16 0.817357E-18 0.254527E-16
  --> max change: dpmx=   0.0000E+00

== RICHARDS FLOW ===============================================================
  0 2r: 8.17E-17 2x: 0.00E+00 2u: 0.00E+00 ir: 2.55E-17 iu: 0.00E+00 rsn:   0
  1 2r: 8.17E-17 2x: 1.24E+06 2u: 6.52E-11 ir: 2.55E-17 iu: 1.43E-11 rsn: stol

 Step     66 Time=  2.85000E+00 Dt=  5.00000E-02 [y] conv_reason: 4
  newton =   1 [      93] linear =     1 [        93] cuts =  0 [   0]
  --> SNES Linear/Non-Linear Iterations = 1 / 1
  --> SNES Residual: 0.817357E-16 0.817357E-18 0.254527E-16
  --> max change: dpmx=   0.0000E+00

== RICHARDS FLOW ===============================================================
  0 2r: 8.17E-17 2x: 0.00E+00 2u: 0.00E+00 ir: 2.55E-17 iu: 0.00E+00 rsn:   0
  1 2r: 8.17E-17 2x: 1.24E+06 2u: 6.52E-11 ir: 2.55E-17 iu: 1.43E-11 rsn: stol

 Step     67 Time=  2.90000E+00 Dt=  5.00000E-02 [y] conv_reason: 4
  newton =   1 [      94] linear =     1 [        94] cuts =  0 [   0]
  --> SNES Linear/Non-Linear Iterations = 1 / 1
  --> SNES Residual: 0.817357E-16 0.817357E-18 0.254527E-16
  --> max change: dpmx=   0.0000E+00

== RICHARDS FLOW ===============================================================
  0 2r: 8.17E-17 2x: 0.00E+00 2u: 0.00E+00 ir: 2.55E-17 iu: 0.00E+00 rsn:   0
  1 2r: 8.17E-17 2x: 1.24E+06 2u: 6.52E-11 ir: 2.55E-17 iu: 1.43E-11 rsn: stol

 Step     68 Time=  2.95000E+00 Dt=  5.00000E-02 [y] conv_reason: 4
  newton =   1 [      95] linear =     1 [        95] cuts =  0 [   0]
  --> SNES Linear/Non-Linear Iterations = 1 / 1
  --> SNES Residual: 0.817357E-16 0.817357E-18 0.254527E-16
  --> max change: dpmx=   0.0000E+00

== RICHARDS FLOW ===============================================================
  0 2r: 8.17E-17 2x: 0.00E+00 2u: 0.00E+00 ir: 2.55E-17 iu: 0.00E+00 rsn:   0
  1 2r: 8.17E-17 2x: 1.24E+06 2u: 6.52E-11 ir: 2.55E-17 iu: 1.43E-11 rsn: stol

 Step     69 Time=  3.00000E+00 Dt=  5.00000E-02 [y] conv_reason: 4
  newton =   1 [      96] linear =     1 [        96] cuts =  0 [   0]
  --> SNES Linear/Non-Linear Iterations = 1 / 1
  --> SNES Residual: 0.817357E-16 0.817357E-18 0.254527E-16
  --> max change: dpmx=   0.0000E+00

== RICHARDS FLOW ===============================================================
  0 2r: 8.17E-17 2x: 0.00E+00 2u: 0.00E+00 ir: 2.55E-17 iu: 0.00E+00 rsn:   0
  1 2r: 8.17E-17 2x: 1.24E+06 2u: 6.52E-11 ir: 2.55E-17 iu: 1.43E-11 rsn: stol

 Step     70 Time=  3.05000E+00 Dt=  5.00000E-02 [y] conv_reason: 4
  newton =   1 [      97] linear =     1 [        97] cuts =  0 [   0]
  --> SNES Linear/Non-Linear Iterations = 1 / 1
  --> SNES Residual: 0.817357E-16 0.817357E-18 0.254527E-16
  --> max change: dpmx=   0.0000E+00

== RICHARDS FLOW ===============================================================
  0 2r: 8.17E-17 2x: 0.00E+00 2u: 0.00E+00 ir: 2.55E-17 iu: 0.00E+00 rsn:   0
  1 2r: 8.17E-17 2x: 1.24E+06 2u: 6.52E-11 ir: 2.55E-17 iu: 1.43E-11 rsn: stol

 Step     71 Time=  3.10000E+00 Dt=  5.00000E-02 [y] conv_reason: 4
  newton =   1 [      98] linear =     1 [        98] cuts =  0 [   0]
  --> SNES Linear/Non-Linear Iterations = 1 / 1
  --> SNES Residual: 0.817357E-16 0.817357E-18 0.254527E-16
  --> max change: dpmx=   0.0000E+00

== RICHARDS FLOW ===============================================================
  0 2r: 8.17E-17 2x: 0.00E+00 2u: 0.00E+00 ir: 2.55E-17 iu: 0.00E+00 rsn:   0
  1 2r: 8.17E-17 2x: 1.24E+06 2u: 6.52E-11 ir: 2.55E-17 iu: 1.43E-11 rsn: stol

 Step     72 Time=  3.15000E+00 Dt=  5.00000E-02 [y] conv_reason: 4
  newton =   1 [      99] linear =     1 [        99] cuts =  0 [   0]
  --> SNES Linear/Non-Linear Iterations = 1 / 1
  --> SNES Residual: 0.817357E-16 0.817357E-18 0.254527E-16
  --> max change: dpmx=   0.0000E+00

== RICHARDS FLOW ===============================================================
  0 2r: 8.17E-17 2x: 0.00E+00 2u: 0.00E+00 ir: 2.55E-17 iu: 0.00E+00 rsn:   0
  1 2r: 8.17E-17 2x: 1.24E+06 2u: 6.52E-11 ir: 2.55E-17 iu: 1.43E-11 rsn: stol

 Step     73 Time=  3.20000E+00 Dt=  5.00000E-02 [y] conv_reason: 4
  newton =   1 [     100] linear =     1 [       100] cuts =  0 [   0]
  --> SNES Linear/Non-Linear Iterations = 1 / 1
  --> SNES Residual: 0.817357E-16 0.817357E-18 0.254527E-16
  --> max change: dpmx=   0.0000E+00

== RICHARDS FLOW ===============================================================
  0 2r: 8.17E-17 2x: 0.00E+00 2u: 0.00E+00 ir: 2.55E-17 iu: 0.00E+00 rsn:   0
  1 2r: 8.17E-17 2x: 1.24E+06 2u: 6.52E-11 ir: 2.55E-17 iu: 1.43E-11 rsn: stol

 Step     74 Time=  3.25000E+00 Dt=  5.00000E-02 [y] conv_reason: 4
  newton =   1 [     101] linear =     1 [       101] cuts =  0 [   0]
  --> SNES Linear/Non-Linear Iterations = 1 / 1
  --> SNES Residual: 0.817357E-16 0.817357E-18 0.254527E-16
  --> max change: dpmx=   0.0000E+00

== RICHARDS FLOW ===============================================================
  0 2r: 8.17E-17 2x: 0.00E+00 2u: 0.00E+00 ir: 2.55E-17 iu: 0.00E+00 rsn:   0
  1 2r: 8.17E-17 2x: 1.24E+06 2u: 6.52E-11 ir: 2.55E-17 iu: 1.43E-11 rsn: stol

 Step     75 Time=  3.30000E+00 Dt=  5.00000E-02 [y] conv_reason: 4
  newton =   1 [     102] linear =     1 [       102] cuts =  0 [   0]
  --> SNES Linear/Non-Linear Iterations = 1 / 1
  --> SNES Residual: 0.817357E-16 0.817357E-18 0.254527E-16
  --> max change: dpmx=   0.0000E+00

== RICHARDS FLOW ===============================================================
  0 2r: 8.17E-17 2x: 0.00E+00 2u: 0.00E+00 ir: 2.55E-17 iu: 0.00E+00 rsn:   0
  1 2r: 8.17E-17 2x: 1.24E+06 2u: 6.52E-11 ir: 2.55E-17 iu: 1.43E-11 rsn: stol

 Step     76 Time=  3.35000E+00 Dt=  5.00000E-02 [y] conv_reason: 4
  newton =   1 [     103] linear =     1 [       103] cuts =  0 [   0]
  --> SNES Linear/Non-Linear Iterations = 1 / 1
  --> SNES Residual: 0.817357E-16 0.817357E-18 0.254527E-16
  --> max change: dpmx=   0.0000E+00

== RICHARDS FLOW ===============================================================
  0 2r: 8.17E-17 2x: 0.00E+00 2u: 0.00E+00 ir: 2.55E-17 iu: 0.00E+00 rsn:   0
  1 2r: 8.17E-17 2x: 1.24E+06 2u: 6.52E-11 ir: 2.55E-17 iu: 1.43E-11 rsn: stol

 Step     77 Time=  3.40000E+00 Dt=  5.00000E-02 [y] conv_reason: 4
  newton =   1 [     104] linear =     1 [       104] cuts =  0 [   0]
  --> SNES Linear/Non-Linear Iterations = 1 / 1
  --> SNES Residual: 0.817357E-16 0.817357E-18 0.254527E-16
  --> max change: dpmx=   0.0000E+00

== RICHARDS FLOW ===============================================================
  0 2r: 8.17E-17 2x: 0.00E+00 2u: 0.00E+00 ir: 2.55E-17 iu: 0.00E+00 rsn:   0
  1 2r: 8.17E-17 2x: 1.24E+06 2u: 6.52E-11 ir: 2.55E-17 iu: 1.43E-11 rsn: stol

 Step     78 Time=  3.45000E+00 Dt=  5.00000E-02 [y] conv_reason: 4
  newton =   1 [     105] linear =     1 [       105] cuts =  0 [   0]
  --> SNES Linear/Non-Linear Iterations = 1 / 1
  --> SNES Residual: 0.817357E-16 0.817357E-18 0.254527E-16
  --> max change: dpmx=   0.0000E+00

== RICHARDS FLOW ===============================================================
  0 2r: 8.17E-17 2x: 0.00E+00 2u: 0.00E+00 ir: 2.55E-17 iu: 0.00E+00 rsn:   0
  1 2r: 8.17E-17 2x: 1.24E+06 2u: 6.52E-11 ir: 2.55E-17 iu: 1.43E-11 rsn: stol

 Step     79 Time=  3.50000E+00 Dt=  5.00000E-02 [y] conv_reason: 4
  newton =   1 [     106] linear =     1 [       106] cuts =  0 [   0]
  --> SNES Linear/Non-Linear Iterations = 1 / 1
  --> SNES Residual: 0.817357E-16 0.817357E-18 0.254527E-16
  --> max change: dpmx=   0.0000E+00

== RICHARDS FLOW ===============================================================
  0 2r: 8.17E-17 2x: 0.00E+00 2u: 0.00E+00 ir: 2.55E-17 iu: 0.00E+00 rsn:   0
  1 2r: 8.17E-17 2x: 1.24E+06 2u: 6.52E-11 ir: 2.55E-17 iu: 1.43E-11 rsn: stol

 Step     80 Time=  3.55000E+00 Dt=  5.00000E-02 [y] conv_reason: 4
  newton =   1 [     107] linear =     1 [       107] cuts =  0 [   0]
  --> SNES Linear/Non-Linear Iterations = 1 / 1
  --> SNES Residual: 0.817357E-16 0.817357E-18 0.254527E-16
  --> max change: dpmx=   0.0000E+00

== RICHARDS FLOW ===============================================================
  0 2r: 8.17E-17 2x: 0.00E+00 2u: 0.00E+00 ir: 2.55E-17 iu: 0.00E+00 rsn:   0
  1 2r: 8.17E-17 2x: 1.24E+06 2u: 6.52E-11 ir: 2.55E-17 iu: 1.43E-11 rsn: stol

 Step     81 Time=  3.60000E+00 Dt=  5.00000E-02 [y] conv_reason: 4
  newton =   1 [     108] linear =     1 [       108] cuts =  0 [   0]
  --> SNES Linear/Non-Linear Iterations = 1 / 1
  --> SNES Residual: 0.817357E-16 0.817357E-18 0.254527E-16
  --> max change: dpmx=   0.0000E+00

== RICHARDS FLOW ===============================================================
  0 2r: 8.17E-17 2x: 0.00E+00 2u: 0.00E+00 ir: 2.55E-17 iu: 0.00E+00 rsn:   0
  1 2r: 8.17E-17 2x: 1.24E+06 2u: 6.52E-11 ir: 2.55E-17 iu: 1.43E-11 rsn: stol

 Step     82 Time=  3.65000E+00 Dt=  5.00000E-02 [y] conv_reason: 4
  newton =   1 [     109] linear =     1 [       109] cuts =  0 [   0]
  --> SNES Linear/Non-Linear Iterations = 1 / 1
  --> SNES Residual: 0.817357E-16 0.817357E-18 0.254527E-16
  --> max change: dpmx=   0.0000E+00

== RICHARDS FLOW ===============================================================
  0 2r: 8.17E-17 2x: 0.00E+00 2u: 0.00E+00 ir: 2.55E-17 iu: 0.00E+00 rsn:   0
  1 2r: 8.17E-17 2x: 1.24E+06 2u: 6.52E-11 ir: 2.55E-17 iu: 1.43E-11 rsn: stol

 Step     83 Time=  3.70000E+00 Dt=  5.00000E-02 [y] conv_reason: 4
  newton =   1 [     110] linear =     1 [       110] cuts =  0 [   0]
  --> SNES Linear/Non-Linear Iterations = 1 / 1
  --> SNES Residual: 0.817357E-16 0.817357E-18 0.254527E-16
  --> max change: dpmx=   0.0000E+00

== RICHARDS FLOW ===============================================================
  0 2r: 8.17E-17 2x: 0.00E+00 2u: 0.00E+00 ir: 2.55E-17 iu: 0.00E+00 rsn:   0
  1 2r: 8.17E-17 2x: 1.24E+06 2u: 6.52E-11 ir: 2.55E-17 iu: 1.43E-11 rsn: stol

 Step     84 Time=  3.75000E+00 Dt=  5.00000E-02 [y] conv_reason: 4
  newton =   1 [     111] linear =     1 [       111] cuts =  0 [   0]
  --> SNES Linear/Non-Linear Iterations = 1 / 1
  --> SNES Residual: 0.817357E-16 0.817357E-18 0.254527E-16
  --> max change: dpmx=   0.0000E+00

== RICHARDS FLOW ===============================================================
  0 2r: 8.17E-17 2x: 0.00E+00 2u: 0.00E+00 ir: 2.55E-17 iu: 0.00E+00 rsn:   0
  1 2r: 8.17E-17 2x: 1.24E+06 2u: 6.52E-11 ir: 2.55E-17 iu: 1.43E-11 rsn: stol

 Step     85 Time=  3.80000E+00 Dt=  5.00000E-02 [y] conv_reason: 4
  newton =   1 [     112] linear =     1 [       112] cuts =  0 [   0]
  --> SNES Linear/Non-Linear Iterations = 1 / 1
  --> SNES Residual: 0.817357E-16 0.817357E-18 0.254527E-16
  --> max change: dpmx=   0.0000E+00

== RICHARDS FLOW ===============================================================
  0 2r: 8.17E-17 2x: 0.00E+00 2u: 0.00E+00 ir: 2.55E-17 iu: 0.00E+00 rsn:   0
  1 2r: 8.17E-17 2x: 1.24E+06 2u: 6.52E-11 ir: 2.55E-17 iu: 1.43E-11 rsn: stol

 Step     86 Time=  3.85000E+00 Dt=  5.00000E-02 [y] conv_reason: 4
  newton =   1 [     113] linear =     1 [       113] cuts =  0 [   0]
  --> SNES Linear/Non-Linear Iterations = 1 / 1
  --> SNES Residual: 0.817357E-16 0.817357E-18 0.254527E-16
  --> max change: dpmx=   0.0000E+00

== RICHARDS FLOW ===============================================================
  0 2r: 8.17E-17 2x: 0.00E+00 2u: 0.00E+00 ir: 2.55E-17 iu: 0.00E+00 rsn:   0
  1 2r: 8.17E-17 2x: 1.24E+06 2u: 6.52E-11 ir: 2.55E-17 iu: 1.43E-11 rsn: stol

 Step     87 Time=  3.90000E+00 Dt=  5.00000E-02 [y] conv_reason: 4
  newton =   1 [     114] linear =     1 [       114] cuts =  0 [   0]
  --> SNES Linear/Non-Linear Iterations = 1 / 1
  --> SNES Residual: 0.817357E-16 0.817357E-18 0.254527E-16
  --> max change: dpmx=   0.0000E+00

== RICHARDS FLOW ===============================================================
  0 2r: 8.17E-17 2x: 0.00E+00 2u: 0.00E+00 ir: 2.55E-17 iu: 0.00E+00 rsn:   0
  1 2r: 8.17E-17 2x: 1.24E+06 2u: 6.52E-11 ir: 2.55E-17 iu: 1.43E-11 rsn: stol

 Step     88 Time=  3.95000E+00 Dt=  5.00000E-02 [y] conv_reason: 4
  newton =   1 [     115] linear =     1 [       115] cuts =  0 [   0]
  --> SNES Linear/Non-Linear Iterations = 1 / 1
  --> SNES Residual: 0.817357E-16 0.817357E-18 0.254527E-16
  --> max change: dpmx=   0.0000E+00

== RICHARDS FLOW ===============================================================
  0 2r: 8.17E-17 2x: 0.00E+00 2u: 0.00E+00 ir: 2.55E-17 iu: 0.00E+00 rsn:   0
  1 2r: 8.17E-17 2x: 1.24E+06 2u: 6.52E-11 ir: 2.55E-17 iu: 1.43E-11 rsn: stol

 Step     89 Time=  4.00000E+00 Dt=  5.00000E-02 [y] conv_reason: 4
  newton =   1 [     116] linear =     1 [       116] cuts =  0 [   0]
  --> SNES Linear/Non-Linear Iterations = 1 / 1
  --> SNES Residual: 0.817357E-16 0.817357E-18 0.254527E-16
  --> max change: dpmx=   0.0000E+00

== RICHARDS FLOW ===============================================================
  0 2r: 8.17E-17 2x: 0.00E+00 2u: 0.00E+00 ir: 2.55E-17 iu: 0.00E+00 rsn:   0
  1 2r: 8.17E-17 2x: 1.24E+06 2u: 6.52E-11 ir: 2.55E-17 iu: 1.43E-11 rsn: stol

 Step     90 Time=  4.05000E+00 Dt=  5.00000E-02 [y] conv_reason: 4
  newton =   1 [     117] linear =     1 [       117] cuts =  0 [   0]
  --> SNES Linear/Non-Linear Iterations = 1 / 1
  --> SNES Residual: 0.817357E-16 0.817357E-18 0.254527E-16
  --> max change: dpmx=   0.0000E+00

== RICHARDS FLOW ===============================================================
  0 2r: 8.17E-17 2x: 0.00E+00 2u: 0.00E+00 ir: 2.55E-17 iu: 0.00E+00 rsn:   0
  1 2r: 8.17E-17 2x: 1.24E+06 2u: 6.52E-11 ir: 2.55E-17 iu: 1.43E-11 rsn: stol

 Step     91 Time=  4.10000E+00 Dt=  5.00000E-02 [y] conv_reason: 4
  newton =   1 [     118] linear =     1 [       118] cuts =  0 [   0]
  --> SNES Linear/Non-Linear Iterations = 1 / 1
  --> SNES Residual: 0.817357E-16 0.817357E-18 0.254527E-16
  --> max change: dpmx=   0.0000E+00

== RICHARDS FLOW ===============================================================
  0 2r: 8.17E-17 2x: 0.00E+00 2u: 0.00E+00 ir: 2.55E-17 iu: 0.00E+00 rsn:   0
  1 2r: 8.17E-17 2x: 1.24E+06 2u: 6.52E-11 ir: 2.55E-17 iu: 1.43E-11 rsn: stol

 Step     92 Time=  4.15000E+00 Dt=  5.00000E-02 [y] conv_reason: 4
  newton =   1 [     119] linear =     1 [       119] cuts =  0 [   0]
  --> SNES Linear/Non-Linear Iterations = 1 / 1
  --> SNES Residual: 0.817357E-16 0.817357E-18 0.254527E-16
  --> max change: dpmx=   0.0000E+00

== RICHARDS FLOW ===============================================================
  0 2r: 8.17E-17 2x: 0.00E+00 2u: 0.00E+00 ir: 2.55E-17 iu: 0.00E+00 rsn:   0
  1 2r: 8.17E-17 2x: 1.24E+06 2u: 6.52E-11 ir: 2.55E-17 iu: 1.43E-11 rsn: stol

 Step     93 Time=  4.20000E+00 Dt=  5.00000E-02 [y] conv_reason: 4
  newton =   1 [     120] linear =     1 [       120] cuts =  0 [   0]
  --> SNES Linear/Non-Linear Iterations = 1 / 1
  --> SNES Residual: 0.817357E-16 0.817357E-18 0.254527E-16
  --> max change: dpmx=   0.0000E+00

== RICHARDS FLOW ===============================================================
  0 2r: 8.17E-17 2x: 0.00E+00 2u: 0.00E+00 ir: 2.55E-17 iu: 0.00E+00 rsn:   0
  1 2r: 8.17E-17 2x: 1.24E+06 2u: 6.52E-11 ir: 2.55E-17 iu: 1.43E-11 rsn: stol

 Step     94 Time=  4.25000E+00 Dt=  5.00000E-02 [y] conv_reason: 4
  newton =   1 [     121] linear =     1 [       121] cuts =  0 [   0]
  --> SNES Linear/Non-Linear Iterations = 1 / 1
  --> SNES Residual: 0.817357E-16 0.817357E-18 0.254527E-16
  --> max change: dpmx=   0.0000E+00

== RICHARDS FLOW ===============================================================
  0 2r: 8.17E-17 2x: 0.00E+00 2u: 0.00E+00 ir: 2.55E-17 iu: 0.00E+00 rsn:   0
  1 2r: 8.17E-17 2x: 1.24E+06 2u: 6.52E-11 ir: 2.55E-17 iu: 1.43E-11 rsn: stol

 Step     95 Time=  4.30000E+00 Dt=  5.00000E-02 [y] conv_reason: 4
  newton =   1 [     122] linear =     1 [       122] cuts =  0 [   0]
  --> SNES Linear/Non-Linear Iterations = 1 / 1
  --> SNES Residual: 0.817357E-16 0.817357E-18 0.254527E-16
  --> max change: dpmx=   0.0000E+00

== RICHARDS FLOW ===============================================================
  0 2r: 8.17E-17 2x: 0.00E+00 2u: 0.00E+00 ir: 2.55E-17 iu: 0.00E+00 rsn:   0
  1 2r: 8.17E-17 2x: 1.24E+06 2u: 6.52E-11 ir: 2.55E-17 iu: 1.43E-11 rsn: stol

 Step     96 Time=  4.35000E+00 Dt=  5.00000E-02 [y] conv_reason: 4
  newton =   1 [     123] linear =     1 [       123] cuts =  0 [   0]
  --> SNES Linear/Non-Linear Iterations = 1 / 1
  --> SNES Residual: 0.817357E-16 0.817357E-18 0.254527E-16
  --> max change: dpmx=   0.0000E+00

== RICHARDS FLOW ===============================================================
  0 2r: 8.17E-17 2x: 0.00E+00 2u: 0.00E+00 ir: 2.55E-17 iu: 0.00E+00 rsn:   0
  1 2r: 8.17E-17 2x: 1.24E+06 2u: 6.52E-11 ir: 2.55E-17 iu: 1.43E-11 rsn: stol

 Step     97 Time=  4.40000E+00 Dt=  5.00000E-02 [y] conv_reason: 4
  newton =   1 [     124] linear =     1 [       124] cuts =  0 [   0]
  --> SNES Linear/Non-Linear Iterations = 1 / 1
  --> SNES Residual: 0.817357E-16 0.817357E-18 0.254527E-16
  --> max change: dpmx=   0.0000E+00

== RICHARDS FLOW ===============================================================
  0 2r: 8.17E-17 2x: 0.00E+00 2u: 0.00E+00 ir: 2.55E-17 iu: 0.00E+00 rsn:   0
  1 2r: 8.17E-17 2x: 1.24E+06 2u: 6.52E-11 ir: 2.55E-17 iu: 1.43E-11 rsn: stol

 Step     98 Time=  4.45000E+00 Dt=  5.00000E-02 [y] conv_reason: 4
  newton =   1 [     125] linear =     1 [       125] cuts =  0 [   0]
  --> SNES Linear/Non-Linear Iterations = 1 / 1
  --> SNES Residual: 0.817357E-16 0.817357E-18 0.254527E-16
  --> max change: dpmx=   0.0000E+00

== RICHARDS FLOW ===============================================================
  0 2r: 8.17E-17 2x: 0.00E+00 2u: 0.00E+00 ir: 2.55E-17 iu: 0.00E+00 rsn:   0
  1 2r: 8.17E-17 2x: 1.24E+06 2u: 6.52E-11 ir: 2.55E-17 iu: 1.43E-11 rsn: stol

 Step     99 Time=  4.50000E+00 Dt=  5.00000E-02 [y] conv_reason: 4
  newton =   1 [     126] linear =     1 [       126] cuts =  0 [   0]
  --> SNES Linear/Non-Linear Iterations = 1 / 1
  --> SNES Residual: 0.817357E-16 0.817357E-18 0.254527E-16
  --> max change: dpmx=   0.0000E+00

== RICHARDS FLOW ===============================================================
  0 2r: 8.17E-17 2x: 0.00E+00 2u: 0.00E+00 ir: 2.55E-17 iu: 0.00E+00 rsn:   0
  1 2r: 8.17E-17 2x: 1.24E+06 2u: 6.52E-11 ir: 2.55E-17 iu: 1.43E-11 rsn: stol

 Step    100 Time=  4.55000E+00 Dt=  5.00000E-02 [y] conv_reason: 4
  newton =   1 [     127] linear =     1 [       127] cuts =  0 [   0]
  --> SNES Linear/Non-Linear Iterations = 1 / 1
  --> SNES Residual: 0.817357E-16 0.817357E-18 0.254527E-16
  --> max change: dpmx=   0.0000E+00

== RICHARDS FLOW ===============================================================
  0 2r: 8.17E-17 2x: 0.00E+00 2u: 0.00E+00 ir: 2.55E-17 iu: 0.00E+00 rsn:   0
  1 2r: 8.17E-17 2x: 1.24E+06 2u: 6.52E-11 ir: 2.55E-17 iu: 1.43E-11 rsn: stol

 Step    101 Time=  4.60000E+00 Dt=  5.00000E-02 [y] conv_reason: 4
  newton =   1 [     128] linear =     1 [       128] cuts =  0 [   0]
  --> SNES Linear/Non-Linear Iterations = 1 / 1
  --> SNES Residual: 0.817357E-16 0.817357E-18 0.254527E-16
  --> max change: dpmx=   0.0000E+00

== RICHARDS FLOW ===============================================================
  0 2r: 8.17E-17 2x: 0.00E+00 2u: 0.00E+00 ir: 2.55E-17 iu: 0.00E+00 rsn:   0
  1 2r: 8.17E-17 2x: 1.24E+06 2u: 6.52E-11 ir: 2.55E-17 iu: 1.43E-11 rsn: stol

 Step    102 Time=  4.65000E+00 Dt=  5.00000E-02 [y] conv_reason: 4
  newton =   1 [     129] linear =     1 [       129] cuts =  0 [   0]
  --> SNES Linear/Non-Linear Iterations = 1 / 1
  --> SNES Residual: 0.817357E-16 0.817357E-18 0.254527E-16
  --> max change: dpmx=   0.0000E+00

== RICHARDS FLOW ===============================================================
  0 2r: 8.17E-17 2x: 0.00E+00 2u: 0.00E+00 ir: 2.55E-17 iu: 0.00E+00 rsn:   0
  1 2r: 8.17E-17 2x: 1.24E+06 2u: 6.52E-11 ir: 2.55E-17 iu: 1.43E-11 rsn: stol

 Step    103 Time=  4.70000E+00 Dt=  5.00000E-02 [y] conv_reason: 4
  newton =   1 [     130] linear =     1 [       130] cuts =  0 [   0]
  --> SNES Linear/Non-Linear Iterations = 1 / 1
  --> SNES Residual: 0.817357E-16 0.817357E-18 0.254527E-16
  --> max change: dpmx=   0.0000E+00

== RICHARDS FLOW ===============================================================
  0 2r: 8.17E-17 2x: 0.00E+00 2u: 0.00E+00 ir: 2.55E-17 iu: 0.00E+00 rsn:   0
  1 2r: 8.17E-17 2x: 1.24E+06 2u: 6.52E-11 ir: 2.55E-17 iu: 1.43E-11 rsn: stol

 Step    104 Time=  4.75000E+00 Dt=  5.00000E-02 [y] conv_reason: 4
  newton =   1 [     131] linear =     1 [       131] cuts =  0 [   0]
  --> SNES Linear/Non-Linear Iterations = 1 / 1
  --> SNES Residual: 0.817357E-16 0.817357E-18 0.254527E-16
  --> max change: dpmx=   0.0000E+00

== RICHARDS FLOW ===============================================================
  0 2r: 8.17E-17 2x: 0.00E+00 2u: 0.00E+00 ir: 2.55E-17 iu: 0.00E+00 rsn:   0
  1 2r: 8.17E-17 2x: 1.24E+06 2u: 6.52E-11 ir: 2.55E-17 iu: 1.43E-11 rsn: stol

 Step    105 Time=  4.80000E+00 Dt=  5.00000E-02 [y] conv_reason: 4
  newton =   1 [     132] linear =     1 [       132] cuts =  0 [   0]
  --> SNES Linear/Non-Linear Iterations = 1 / 1
  --> SNES Residual: 0.817357E-16 0.817357E-18 0.254527E-16
  --> max change: dpmx=   0.0000E+00

== RICHARDS FLOW ===============================================================
  0 2r: 8.17E-17 2x: 0.00E+00 2u: 0.00E+00 ir: 2.55E-17 iu: 0.00E+00 rsn:   0
  1 2r: 8.17E-17 2x: 1.24E+06 2u: 6.52E-11 ir: 2.55E-17 iu: 1.43E-11 rsn: stol

 Step    106 Time=  4.85000E+00 Dt=  5.00000E-02 [y] conv_reason: 4
  newton =   1 [     133] linear =     1 [       133] cuts =  0 [   0]
  --> SNES Linear/Non-Linear Iterations = 1 / 1
  --> SNES Residual: 0.817357E-16 0.817357E-18 0.254527E-16
  --> max change: dpmx=   0.0000E+00

== RICHARDS FLOW ===============================================================
  0 2r: 8.17E-17 2x: 0.00E+00 2u: 0.00E+00 ir: 2.55E-17 iu: 0.00E+00 rsn:   0
  1 2r: 8.17E-17 2x: 1.24E+06 2u: 6.52E-11 ir: 2.55E-17 iu: 1.43E-11 rsn: stol

 Step    107 Time=  4.90000E+00 Dt=  5.00000E-02 [y] conv_reason: 4
  newton =   1 [     134] linear =     1 [       134] cuts =  0 [   0]
  --> SNES Linear/Non-Linear Iterations = 1 / 1
  --> SNES Residual: 0.817357E-16 0.817357E-18 0.254527E-16
  --> max change: dpmx=   0.0000E+00

== RICHARDS FLOW ===============================================================
  0 2r: 8.17E-17 2x: 0.00E+00 2u: 0.00E+00 ir: 2.55E-17 iu: 0.00E+00 rsn:   0
  1 2r: 8.17E-17 2x: 1.24E+06 2u: 6.52E-11 ir: 2.55E-17 iu: 1.43E-11 rsn: stol

 Step    108 Time=  4.95000E+00 Dt=  5.00000E-02 [y] conv_reason: 4
  newton =   1 [     135] linear =     1 [       135] cuts =  0 [   0]
  --> SNES Linear/Non-Linear Iterations = 1 / 1
  --> SNES Residual: 0.817357E-16 0.817357E-18 0.254527E-16
  --> max change: dpmx=   0.0000E+00

== RICHARDS FLOW ===============================================================
  0 2r: 8.17E-17 2x: 0.00E+00 2u: 0.00E+00 ir: 2.55E-17 iu: 0.00E+00 rsn:   0
  1 2r: 8.17E-17 2x: 1.24E+06 2u: 6.52E-11 ir: 2.55E-17 iu: 1.43E-11 rsn: stol

 Step    109 Time=  5.00000E+00 Dt=  5.00000E-02 [y] conv_reason: 4
  newton =   1 [     136] linear =     1 [       136] cuts =  0 [   0]
  --> SNES Linear/Non-Linear Iterations = 1 / 1
  --> SNES Residual: 0.817357E-16 0.817357E-18 0.254527E-16
  --> max change: dpmx=   0.0000E+00

== RICHARDS FLOW ===============================================================
  0 2r: 8.17E-17 2x: 0.00E+00 2u: 0.00E+00 ir: 2.55E-17 iu: 0.00E+00 rsn:   0
  1 2r: 8.17E-17 2x: 1.24E+06 2u: 6.52E-11 ir: 2.55E-17 iu: 1.43E-11 rsn: stol

 Step    110 Time=  5.05000E+00 Dt=  5.00000E-02 [y] conv_reason: 4
  newton =   1 [     137] linear =     1 [       137] cuts =  0 [   0]
  --> SNES Linear/Non-Linear Iterations = 1 / 1
  --> SNES Residual: 0.817357E-16 0.817357E-18 0.254527E-16
  --> max change: dpmx=   0.0000E+00

== RICHARDS FLOW ===============================================================
  0 2r: 8.17E-17 2x: 0.00E+00 2u: 0.00E+00 ir: 2.55E-17 iu: 0.00E+00 rsn:   0
  1 2r: 8.17E-17 2x: 1.24E+06 2u: 6.52E-11 ir: 2.55E-17 iu: 1.43E-11 rsn: stol

 Step    111 Time=  5.10000E+00 Dt=  5.00000E-02 [y] conv_reason: 4
  newton =   1 [     138] linear =     1 [       138] cuts =  0 [   0]
  --> SNES Linear/Non-Linear Iterations = 1 / 1
  --> SNES Residual: 0.817357E-16 0.817357E-18 0.254527E-16
  --> max change: dpmx=   0.0000E+00

== RICHARDS FLOW ===============================================================
  0 2r: 8.17E-17 2x: 0.00E+00 2u: 0.00E+00 ir: 2.55E-17 iu: 0.00E+00 rsn:   0
  1 2r: 8.17E-17 2x: 1.24E+06 2u: 6.52E-11 ir: 2.55E-17 iu: 1.43E-11 rsn: stol

 Step    112 Time=  5.15000E+00 Dt=  5.00000E-02 [y] conv_reason: 4
  newton =   1 [     139] linear =     1 [       139] cuts =  0 [   0]
  --> SNES Linear/Non-Linear Iterations = 1 / 1
  --> SNES Residual: 0.817357E-16 0.817357E-18 0.254527E-16
  --> max change: dpmx=   0.0000E+00

== RICHARDS FLOW ===============================================================
  0 2r: 8.17E-17 2x: 0.00E+00 2u: 0.00E+00 ir: 2.55E-17 iu: 0.00E+00 rsn:   0
  1 2r: 8.17E-17 2x: 1.24E+06 2u: 6.52E-11 ir: 2.55E-17 iu: 1.43E-11 rsn: stol

 Step    113 Time=  5.20000E+00 Dt=  5.00000E-02 [y] conv_reason: 4
  newton =   1 [     140] linear =     1 [       140] cuts =  0 [   0]
  --> SNES Linear/Non-Linear Iterations = 1 / 1
  --> SNES Residual: 0.817357E-16 0.817357E-18 0.254527E-16
  --> max change: dpmx=   0.0000E+00

== RICHARDS FLOW ===============================================================
  0 2r: 8.17E-17 2x: 0.00E+00 2u: 0.00E+00 ir: 2.55E-17 iu: 0.00E+00 rsn:   0
  1 2r: 8.17E-17 2x: 1.24E+06 2u: 6.52E-11 ir: 2.55E-17 iu: 1.43E-11 rsn: stol

 Step    114 Time=  5.25000E+00 Dt=  5.00000E-02 [y] conv_reason: 4
  newton =   1 [     141] linear =     1 [       141] cuts =  0 [   0]
  --> SNES Linear/Non-Linear Iterations = 1 / 1
  --> SNES Residual: 0.817357E-16 0.817357E-18 0.254527E-16
  --> max change: dpmx=   0.0000E+00

== RICHARDS FLOW ===============================================================
  0 2r: 8.17E-17 2x: 0.00E+00 2u: 0.00E+00 ir: 2.55E-17 iu: 0.00E+00 rsn:   0
  1 2r: 8.17E-17 2x: 1.24E+06 2u: 6.52E-11 ir: 2.55E-17 iu: 1.43E-11 rsn: stol

 Step    115 Time=  5.30000E+00 Dt=  5.00000E-02 [y] conv_reason: 4
  newton =   1 [     142] linear =     1 [       142] cuts =  0 [   0]
  --> SNES Linear/Non-Linear Iterations = 1 / 1
  --> SNES Residual: 0.817357E-16 0.817357E-18 0.254527E-16
  --> max change: dpmx=   0.0000E+00

== RICHARDS FLOW ===============================================================
  0 2r: 8.17E-17 2x: 0.00E+00 2u: 0.00E+00 ir: 2.55E-17 iu: 0.00E+00 rsn:   0
  1 2r: 8.17E-17 2x: 1.24E+06 2u: 6.52E-11 ir: 2.55E-17 iu: 1.43E-11 rsn: stol

 Step    116 Time=  5.35000E+00 Dt=  5.00000E-02 [y] conv_reason: 4
  newton =   1 [     143] linear =     1 [       143] cuts =  0 [   0]
  --> SNES Linear/Non-Linear Iterations = 1 / 1
  --> SNES Residual: 0.817357E-16 0.817357E-18 0.254527E-16
  --> max change: dpmx=   0.0000E+00

== RICHARDS FLOW ===============================================================
  0 2r: 8.17E-17 2x: 0.00E+00 2u: 0.00E+00 ir: 2.55E-17 iu: 0.00E+00 rsn:   0
  1 2r: 8.17E-17 2x: 1.24E+06 2u: 6.52E-11 ir: 2.55E-17 iu: 1.43E-11 rsn: stol

 Step    117 Time=  5.40000E+00 Dt=  5.00000E-02 [y] conv_reason: 4
  newton =   1 [     144] linear =     1 [       144] cuts =  0 [   0]
  --> SNES Linear/Non-Linear Iterations = 1 / 1
  --> SNES Residual: 0.817357E-16 0.817357E-18 0.254527E-16
  --> max change: dpmx=   0.0000E+00

== RICHARDS FLOW ===============================================================
  0 2r: 8.17E-17 2x: 0.00E+00 2u: 0.00E+00 ir: 2.55E-17 iu: 0.00E+00 rsn:   0
  1 2r: 8.17E-17 2x: 1.24E+06 2u: 6.52E-11 ir: 2.55E-17 iu: 1.43E-11 rsn: stol

 Step    118 Time=  5.45000E+00 Dt=  5.00000E-02 [y] conv_reason: 4
  newton =   1 [     145] linear =     1 [       145] cuts =  0 [   0]
  --> SNES Linear/Non-Linear Iterations = 1 / 1
  --> SNES Residual: 0.817357E-16 0.817357E-18 0.254527E-16
  --> max change: dpmx=   0.0000E+00

== RICHARDS FLOW ===============================================================
  0 2r: 8.17E-17 2x: 0.00E+00 2u: 0.00E+00 ir: 2.55E-17 iu: 0.00E+00 rsn:   0
  1 2r: 8.17E-17 2x: 1.24E+06 2u: 6.52E-11 ir: 2.55E-17 iu: 1.43E-11 rsn: stol

 Step    119 Time=  5.50000E+00 Dt=  5.00000E-02 [y] conv_reason: 4
  newton =   1 [     146] linear =     1 [       146] cuts =  0 [   0]
  --> SNES Linear/Non-Linear Iterations = 1 / 1
  --> SNES Residual: 0.817357E-16 0.817357E-18 0.254527E-16
  --> max change: dpmx=   0.0000E+00

== RICHARDS FLOW ===============================================================
  0 2r: 8.17E-17 2x: 0.00E+00 2u: 0.00E+00 ir: 2.55E-17 iu: 0.00E+00 rsn:   0
  1 2r: 8.17E-17 2x: 1.24E+06 2u: 6.52E-11 ir: 2.55E-17 iu: 1.43E-11 rsn: stol

 Step    120 Time=  5.55000E+00 Dt=  5.00000E-02 [y] conv_reason: 4
  newton =   1 [     147] linear =     1 [       147] cuts =  0 [   0]
  --> SNES Linear/Non-Linear Iterations = 1 / 1
  --> SNES Residual: 0.817357E-16 0.817357E-18 0.254527E-16
  --> max change: dpmx=   0.0000E+00

== RICHARDS FLOW ===============================================================
  0 2r: 8.17E-17 2x: 0.00E+00 2u: 0.00E+00 ir: 2.55E-17 iu: 0.00E+00 rsn:   0
  1 2r: 8.17E-17 2x: 1.24E+06 2u: 6.52E-11 ir: 2.55E-17 iu: 1.43E-11 rsn: stol

 Step    121 Time=  5.60000E+00 Dt=  5.00000E-02 [y] conv_reason: 4
  newton =   1 [     148] linear =     1 [       148] cuts =  0 [   0]
  --> SNES Linear/Non-Linear Iterations = 1 / 1
  --> SNES Residual: 0.817357E-16 0.817357E-18 0.254527E-16
  --> max change: dpmx=   0.0000E+00

== RICHARDS FLOW ===============================================================
  0 2r: 8.17E-17 2x: 0.00E+00 2u: 0.00E+00 ir: 2.55E-17 iu: 0.00E+00 rsn:   0
  1 2r: 8.17E-17 2x: 1.24E+06 2u: 6.52E-11 ir: 2.55E-17 iu: 1.43E-11 rsn: stol

 Step    122 Time=  5.65000E+00 Dt=  5.00000E-02 [y] conv_reason: 4
  newton =   1 [     149] linear =     1 [       149] cuts =  0 [   0]
  --> SNES Linear/Non-Linear Iterations = 1 / 1
  --> SNES Residual: 0.817357E-16 0.817357E-18 0.254527E-16
  --> max change: dpmx=   0.0000E+00

== RICHARDS FLOW ===============================================================
  0 2r: 8.17E-17 2x: 0.00E+00 2u: 0.00E+00 ir: 2.55E-17 iu: 0.00E+00 rsn:   0
  1 2r: 8.17E-17 2x: 1.24E+06 2u: 6.52E-11 ir: 2.55E-17 iu: 1.43E-11 rsn: stol

 Step    123 Time=  5.70000E+00 Dt=  5.00000E-02 [y] conv_reason: 4
  newton =   1 [     150] linear =     1 [       150] cuts =  0 [   0]
  --> SNES Linear/Non-Linear Iterations = 1 / 1
  --> SNES Residual: 0.817357E-16 0.817357E-18 0.254527E-16
  --> max change: dpmx=   0.0000E+00

== RICHARDS FLOW ===============================================================
  0 2r: 8.17E-17 2x: 0.00E+00 2u: 0.00E+00 ir: 2.55E-17 iu: 0.00E+00 rsn:   0
  1 2r: 8.17E-17 2x: 1.24E+06 2u: 6.52E-11 ir: 2.55E-17 iu: 1.43E-11 rsn: stol

 Step    124 Time=  5.75000E+00 Dt=  5.00000E-02 [y] conv_reason: 4
  newton =   1 [     151] linear =     1 [       151] cuts =  0 [   0]
  --> SNES Linear/Non-Linear Iterations = 1 / 1
  --> SNES Residual: 0.817357E-16 0.817357E-18 0.254527E-16
  --> max change: dpmx=   0.0000E+00

== RICHARDS FLOW ===============================================================
  0 2r: 8.17E-17 2x: 0.00E+00 2u: 0.00E+00 ir: 2.55E-17 iu: 0.00E+00 rsn:   0
  1 2r: 8.17E-17 2x: 1.24E+06 2u: 6.52E-11 ir: 2.55E-17 iu: 1.43E-11 rsn: stol

 Step    125 Time=  5.80000E+00 Dt=  5.00000E-02 [y] conv_reason: 4
  newton =   1 [     152] linear =     1 [       152] cuts =  0 [   0]
  --> SNES Linear/Non-Linear Iterations = 1 / 1
  --> SNES Residual: 0.817357E-16 0.817357E-18 0.254527E-16
  --> max change: dpmx=   0.0000E+00

== RICHARDS FLOW ===============================================================
  0 2r: 8.17E-17 2x: 0.00E+00 2u: 0.00E+00 ir: 2.55E-17 iu: 0.00E+00 rsn:   0
  1 2r: 8.17E-17 2x: 1.24E+06 2u: 6.52E-11 ir: 2.55E-17 iu: 1.43E-11 rsn: stol

 Step    126 Time=  5.85000E+00 Dt=  5.00000E-02 [y] conv_reason: 4
  newton =   1 [     153] linear =     1 [       153] cuts =  0 [   0]
  --> SNES Linear/Non-Linear Iterations = 1 / 1
  --> SNES Residual: 0.817357E-16 0.817357E-18 0.254527E-16
  --> max change: dpmx=   0.0000E+00

== RICHARDS FLOW ===============================================================
  0 2r: 8.17E-17 2x: 0.00E+00 2u: 0.00E+00 ir: 2.55E-17 iu: 0.00E+00 rsn:   0
  1 2r: 8.17E-17 2x: 1.24E+06 2u: 6.52E-11 ir: 2.55E-17 iu: 1.43E-11 rsn: stol

 Step    127 Time=  5.90000E+00 Dt=  5.00000E-02 [y] conv_reason: 4
  newton =   1 [     154] linear =     1 [       154] cuts =  0 [   0]
  --> SNES Linear/Non-Linear Iterations = 1 / 1
  --> SNES Residual: 0.817357E-16 0.817357E-18 0.254527E-16
  --> max change: dpmx=   0.0000E+00

== RICHARDS FLOW ===============================================================
  0 2r: 8.17E-17 2x: 0.00E+00 2u: 0.00E+00 ir: 2.55E-17 iu: 0.00E+00 rsn:   0
  1 2r: 8.17E-17 2x: 1.24E+06 2u: 6.52E-11 ir: 2.55E-17 iu: 1.43E-11 rsn: stol

 Step    128 Time=  5.95000E+00 Dt=  5.00000E-02 [y] conv_reason: 4
  newton =   1 [     155] linear =     1 [       155] cuts =  0 [   0]
  --> SNES Linear/Non-Linear Iterations = 1 / 1
  --> SNES Residual: 0.817357E-16 0.817357E-18 0.254527E-16
  --> max change: dpmx=   0.0000E+00

== RICHARDS FLOW ===============================================================
  0 2r: 8.17E-17 2x: 0.00E+00 2u: 0.00E+00 ir: 2.55E-17 iu: 0.00E+00 rsn:   0
  1 2r: 8.17E-17 2x: 1.24E+06 2u: 6.52E-11 ir: 2.55E-17 iu: 1.43E-11 rsn: stol

 Step    129 Time=  6.00000E+00 Dt=  5.00000E-02 [y] conv_reason: 4
  newton =   1 [     156] linear =     1 [       156] cuts =  0 [   0]
  --> SNES Linear/Non-Linear Iterations = 1 / 1
  --> SNES Residual: 0.817357E-16 0.817357E-18 0.254527E-16
  --> max change: dpmx=   0.0000E+00

== RICHARDS FLOW ===============================================================
  0 2r: 8.17E-17 2x: 0.00E+00 2u: 0.00E+00 ir: 2.55E-17 iu: 0.00E+00 rsn:   0
  1 2r: 8.17E-17 2x: 1.24E+06 2u: 6.52E-11 ir: 2.55E-17 iu: 1.43E-11 rsn: stol

 Step    130 Time=  6.05000E+00 Dt=  5.00000E-02 [y] conv_reason: 4
  newton =   1 [     157] linear =     1 [       157] cuts =  0 [   0]
  --> SNES Linear/Non-Linear Iterations = 1 / 1
  --> SNES Residual: 0.817357E-16 0.817357E-18 0.254527E-16
  --> max change: dpmx=   0.0000E+00

== RICHARDS FLOW ===============================================================
  0 2r: 8.17E-17 2x: 0.00E+00 2u: 0.00E+00 ir: 2.55E-17 iu: 0.00E+00 rsn:   0
  1 2r: 8.17E-17 2x: 1.24E+06 2u: 6.52E-11 ir: 2.55E-17 iu: 1.43E-11 rsn: stol

 Step    131 Time=  6.10000E+00 Dt=  5.00000E-02 [y] conv_reason: 4
  newton =   1 [     158] linear =     1 [       158] cuts =  0 [   0]
  --> SNES Linear/Non-Linear Iterations = 1 / 1
  --> SNES Residual: 0.817357E-16 0.817357E-18 0.254527E-16
  --> max change: dpmx=   0.0000E+00

== RICHARDS FLOW ===============================================================
  0 2r: 8.17E-17 2x: 0.00E+00 2u: 0.00E+00 ir: 2.55E-17 iu: 0.00E+00 rsn:   0
  1 2r: 8.17E-17 2x: 1.24E+06 2u: 6.52E-11 ir: 2.55E-17 iu: 1.43E-11 rsn: stol

 Step    132 Time=  6.15000E+00 Dt=  5.00000E-02 [y] conv_reason: 4
  newton =   1 [     159] linear =     1 [       159] cuts =  0 [   0]
  --> SNES Linear/Non-Linear Iterations = 1 / 1
  --> SNES Residual: 0.817357E-16 0.817357E-18 0.254527E-16
  --> max change: dpmx=   0.0000E+00

== RICHARDS FLOW ===============================================================
  0 2r: 8.17E-17 2x: 0.00E+00 2u: 0.00E+00 ir: 2.55E-17 iu: 0.00E+00 rsn:   0
  1 2r: 8.17E-17 2x: 1.24E+06 2u: 6.52E-11 ir: 2.55E-17 iu: 1.43E-11 rsn: stol

 Step    133 Time=  6.20000E+00 Dt=  5.00000E-02 [y] conv_reason: 4
  newton =   1 [     160] linear =     1 [       160] cuts =  0 [   0]
  --> SNES Linear/Non-Linear Iterations = 1 / 1
  --> SNES Residual: 0.817357E-16 0.817357E-18 0.254527E-16
  --> max change: dpmx=   0.0000E+00

== RICHARDS FLOW ===============================================================
  0 2r: 8.17E-17 2x: 0.00E+00 2u: 0.00E+00 ir: 2.55E-17 iu: 0.00E+00 rsn:   0
  1 2r: 8.17E-17 2x: 1.24E+06 2u: 6.52E-11 ir: 2.55E-17 iu: 1.43E-11 rsn: stol

 Step    134 Time=  6.25000E+00 Dt=  5.00000E-02 [y] conv_reason: 4
  newton =   1 [     161] linear =     1 [       161] cuts =  0 [   0]
  --> SNES Linear/Non-Linear Iterations = 1 / 1
  --> SNES Residual: 0.817357E-16 0.817357E-18 0.254527E-16
  --> max change: dpmx=   0.0000E+00

== RICHARDS FLOW ===============================================================
  0 2r: 8.17E-17 2x: 0.00E+00 2u: 0.00E+00 ir: 2.55E-17 iu: 0.00E+00 rsn:   0
  1 2r: 8.17E-17 2x: 1.24E+06 2u: 6.52E-11 ir: 2.55E-17 iu: 1.43E-11 rsn: stol

 Step    135 Time=  6.30000E+00 Dt=  5.00000E-02 [y] conv_reason: 4
  newton =   1 [     162] linear =     1 [       162] cuts =  0 [   0]
  --> SNES Linear/Non-Linear Iterations = 1 / 1
  --> SNES Residual: 0.817357E-16 0.817357E-18 0.254527E-16
  --> max change: dpmx=   0.0000E+00

== RICHARDS FLOW ===============================================================
  0 2r: 8.17E-17 2x: 0.00E+00 2u: 0.00E+00 ir: 2.55E-17 iu: 0.00E+00 rsn:   0
  1 2r: 8.17E-17 2x: 1.24E+06 2u: 6.52E-11 ir: 2.55E-17 iu: 1.43E-11 rsn: stol

 Step    136 Time=  6.35000E+00 Dt=  5.00000E-02 [y] conv_reason: 4
  newton =   1 [     163] linear =     1 [       163] cuts =  0 [   0]
  --> SNES Linear/Non-Linear Iterations = 1 / 1
  --> SNES Residual: 0.817357E-16 0.817357E-18 0.254527E-16
  --> max change: dpmx=   0.0000E+00

== RICHARDS FLOW ===============================================================
  0 2r: 8.17E-17 2x: 0.00E+00 2u: 0.00E+00 ir: 2.55E-17 iu: 0.00E+00 rsn:   0
  1 2r: 8.17E-17 2x: 1.24E+06 2u: 6.52E-11 ir: 2.55E-17 iu: 1.43E-11 rsn: stol

 Step    137 Time=  6.40000E+00 Dt=  5.00000E-02 [y] conv_reason: 4
  newton =   1 [     164] linear =     1 [       164] cuts =  0 [   0]
  --> SNES Linear/Non-Linear Iterations = 1 / 1
  --> SNES Residual: 0.817357E-16 0.817357E-18 0.254527E-16
  --> max change: dpmx=   0.0000E+00

[...]
  --> SNES Linear/Non-Linear Iterations = 1 / 1
  --> SNES Residual: 0.817357E-16 0.817357E-18 0.254527E-16
  --> max change: dpmx=   0.0000E+00

== RICHARDS FLOW ===============================================================
  0 2r: 8.17E-17 2x: 0.00E+00 2u: 0.00E+00 ir: 2.55E-17 iu: 0.00E+00 rsn:   0
  1 2r: 8.17E-17 2x: 1.24E+06 2u: 6.52E-11 ir: 2.55E-17 iu: 1.43E-11 rsn: stol

 Step    173 Time=  8.20000E+00 Dt=  5.00000E-02 [y] conv_reason: 4
  newton =   1 [     200] linear =     1 [       200] cuts =  0 [   0]
  --> SNES Linear/Non-Linear Iterations = 1 / 1
  --> SNES Residual: 0.817357E-16 0.817357E-18 0.254527E-16
  --> max change: dpmx=   0.0000E+00

== RICHARDS FLOW ===============================================================
  0 2r: 8.17E-17 2x: 0.00E+00 2u: 0.00E+00 ir: 2.55E-17 iu: 0.00E+00 rsn:   0
  1 2r: 8.17E-17 2x: 1.24E+06 2u: 6.52E-11 ir: 2.55E-17 iu: 1.43E-11 rsn: stol

 Step    174 Time=  8.25000E+00 Dt=  5.00000E-02 [y] conv_reason: 4
  newton =   1 [     201] linear =     1 [       201] cuts =  0 [   0]
  --> SNES Linear/Non-Linear Iterations = 1 / 1
  --> SNES Residual: 0.817357E-16 0.817357E-18 0.254527E-16
  --> max change: dpmx=   0.0000E+00

== RICHARDS FLOW ===============================================================
  0 2r: 8.17E-17 2x: 0.00E+00 2u: 0.00E+00 ir: 2.55E-17 iu: 0.00E+00 rsn:   0
  1 2r: 8.17E-17 2x: 1.24E+06 2u: 6.52E-11 ir: 2.55E-17 iu: 1.43E-11 rsn: stol

 Step    175 Time=  8.30000E+00 Dt=  5.00000E-02 [y] conv_reason: 4
  newton =   1 [     202] linear =     1 [       202] cuts =  0 [   0]
  --> SNES Linear/Non-Linear Iterations = 1 / 1
  --> SNES Residual: 0.817357E-16 0.817357E-18 0.254527E-16
  --> max change: dpmx=   0.0000E+00

== RICHARDS FLOW ===============================================================
  0 2r: 8.17E-17 2x: 0.00E+00 2u: 0.00E+00 ir: 2.55E-17 iu: 0.00E+00 rsn:   0
  1 2r: 8.17E-17 2x: 1.24E+06 2u: 6.52E-11 ir: 2.55E-17 iu: 1.43E-11 rsn: stol

 Step    176 Time=  8.35000E+00 Dt=  5.00000E-02 [y] conv_reason: 4
  newton =   1 [     203] linear =     1 [       203] cuts =  0 [   0]
  --> SNES Linear/Non-Linear Iterations = 1 / 1
  --> SNES Residual: 0.817357E-16 0.817357E-18 0.254527E-16
  --> max change: dpmx=   0.0000E+00

== RICHARDS FLOW ===============================================================
  0 2r: 8.17E-17 2x: 0.00E+00 2u: 0.00E+00 ir: 2.55E-17 iu: 0.00E+00 rsn:   0
  1 2r: 8.17E-17 2x: 1.24E+06 2u: 6.52E-11 ir: 2.55E-17 iu: 1.43E-11 rsn: stol

 Step    177 Time=  8.40000E+00 Dt=  5.00000E-02 [y] conv_reason: 4
  newton =   1 [     204] linear =     1 [       204] cuts =  0 [   0]
  --> SNES Linear/Non-Linear Iterations = 1 / 1
  --> SNES Residual: 0.817357E-16 0.817357E-18 0.254527E-16
  --> max change: dpmx=   0.0000E+00

== RICHARDS FLOW ===============================================================
  0 2r: 8.17E-17 2x: 0.00E+00 2u: 0.00E+00 ir: 2.55E-17 iu: 0.00E+00 rsn:   0
  1 2r: 8.17E-17 2x: 1.24E+06 2u: 6.52E-11 ir: 2.55E-17 iu: 1.43E-11 rsn: stol

 Step    178 Time=  8.45000E+00 Dt=  5.00000E-02 [y] conv_reason: 4
  newton =   1 [     205] linear =     1 [       205] cuts =  0 [   0]
  --> SNES Linear/Non-Linear Iterations = 1 / 1
  --> SNES Residual: 0.817357E-16 0.817357E-18 0.254527E-16
  --> max change: dpmx=   0.0000E+00

== RICHARDS FLOW ===============================================================
  0 2r: 8.17E-17 2x: 0.00E+00 2u: 0.00E+00 ir: 2.55E-17 iu: 0.00E+00 rsn:   0
  1 2r: 8.17E-17 2x: 1.24E+06 2u: 6.52E-11 ir: 2.55E-17 iu: 1.43E-11 rsn: stol

 Step    179 Time=  8.50000E+00 Dt=  5.00000E-02 [y] conv_reason: 4
  newton =   1 [     206] linear =     1 [       206] cuts =  0 [   0]
  --> SNES Linear/Non-Linear Iterations = 1 / 1
  --> SNES Residual: 0.817357E-16 0.817357E-18 0.254527E-16
  --> max change: dpmx=   0.0000E+00

== RICHARDS FLOW ===============================================================
  0 2r: 8.17E-17 2x: 0.00E+00 2u: 0.00E+00 ir: 2.55E-17 iu: 0.00E+00 rsn:   0
  1 2r: 8.17E-17 2x: 1.24E+06 2u: 6.52E-11 ir: 2.55E-17 iu: 1.43E-11 rsn: stol

 Step    180 Time=  8.55000E+00 Dt=  5.00000E-02 [y] conv_reason: 4
  newton =   1 [     207] linear =     1 [       207] cuts =  0 [   0]
  --> SNES Linear/Non-Linear Iterations = 1 / 1
  --> SNES Residual: 0.817357E-16 0.817357E-18 0.254527E-16
  --> max change: dpmx=   0.0000E+00

== RICHARDS FLOW ===============================================================
  0 2r: 8.17E-17 2x: 0.00E+00 2u: 0.00E+00 ir: 2.55E-17 iu: 0.00E+00 rsn:   0
  1 2r: 8.17E-17 2x: 1.24E+06 2u: 6.52E-11 ir: 2.55E-17 iu: 1.43E-11 rsn: stol

 Step    181 Time=  8.60000E+00 Dt=  5.00000E-02 [y] conv_reason: 4
  newton =   1 [     208] linear =     1 [       208] cuts =  0 [   0]
  --> SNES Linear/Non-Linear Iterations = 1 / 1
  --> SNES Residual: 0.817357E-16 0.817357E-18 0.254527E-16
  --> max change: dpmx=   0.0000E+00

== RICHARDS FLOW ===============================================================
  0 2r: 8.17E-17 2x: 0.00E+00 2u: 0.00E+00 ir: 2.55E-17 iu: 0.00E+00 rsn:   0
  1 2r: 8.17E-17 2x: 1.24E+06 2u: 6.52E-11 ir: 2.55E-17 iu: 1.43E-11 rsn: stol

 Step    182 Time=  8.65000E+00 Dt=  5.00000E-02 [y] conv_reason: 4
  newton =   1 [     209] linear =     1 [       209] cuts =  0 [   0]
  --> SNES Linear/Non-Linear Iterations = 1 / 1
  --> SNES Residual: 0.817357E-16 0.817357E-18 0.254527E-16
  --> max change: dpmx=   0.0000E+00

== RICHARDS FLOW ===============================================================
  0 2r: 8.17E-17 2x: 0.00E+00 2u: 0.00E+00 ir: 2.55E-17 iu: 0.00E+00 rsn:   0
  1 2r: 8.17E-17 2x: 1.24E+06 2u: 6.52E-11 ir: 2.55E-17 iu: 1.43E-11 rsn: stol

 Step    183 Time=  8.70000E+00 Dt=  5.00000E-02 [y] conv_reason: 4
  newton =   1 [     210] linear =     1 [       210] cuts =  0 [   0]
  --> SNES Linear/Non-Linear Iterations = 1 / 1
  --> SNES Residual: 0.817357E-16 0.817357E-18 0.254527E-16
  --> max change: dpmx=   0.0000E+00

== RICHARDS FLOW ===============================================================
  0 2r: 8.17E-17 2x: 0.00E+00 2u: 0.00E+00 ir: 2.55E-17 iu: 0.00E+00 rsn:   0
  1 2r: 8.17E-17 2x: 1.24E+06 2u: 6.52E-11 ir: 2.55E-17 iu: 1.43E-11 rsn: stol

 Step    184 Time=  8.75000E+00 Dt=  5.00000E-02 [y] conv_reason: 4
  newton =   1 [     211] linear =     1 [       211] cuts =  0 [   0]
  --> SNES Linear/Non-Linear Iterations = 1 / 1
  --> SNES Residual: 0.817357E-16 0.817357E-18 0.254527E-16
  --> max change: dpmx=   0.0000E+00

== RICHARDS FLOW ===============================================================
  0 2r: 8.17E-17 2x: 0.00E+00 2u: 0.00E+00 ir: 2.55E-17 iu: 0.00E+00 rsn:   0
  1 2r: 8.17E-17 2x: 1.24E+06 2u: 6.52E-11 ir: 2.55E-17 iu: 1.43E-11 rsn: stol

 Step    185 Time=  8.80000E+00 Dt=  5.00000E-02 [y] conv_reason: 4
  newton =   1 [     212] linear =     1 [       212] cuts =  0 [   0]
  --> SNES Linear/Non-Linear Iterations = 1 / 1
  --> SNES Residual: 0.817357E-16 0.817357E-18 0.254527E-16
  --> max change: dpmx=   0.0000E+00

== RICHARDS FLOW ===============================================================
  0 2r: 8.17E-17 2x: 0.00E+00 2u: 0.00E+00 ir: 2.55E-17 iu: 0.00E+00 rsn:   0
  1 2r: 8.17E-17 2x: 1.24E+06 2u: 6.52E-11 ir: 2.55E-17 iu: 1.43E-11 rsn: stol

 Step    186 Time=  8.85000E+00 Dt=  5.00000E-02 [y] conv_reason: 4
  newton =   1 [     213] linear =     1 [       213] cuts =  0 [   0]
  --> SNES Linear/Non-Linear Iterations = 1 / 1
  --> SNES Residual: 0.817357E-16 0.817357E-18 0.254527E-16
  --> max change: dpmx=   0.0000E+00

== RICHARDS FLOW ===============================================================
  0 2r: 8.17E-17 2x: 0.00E+00 2u: 0.00E+00 ir: 2.55E-17 iu: 0.00E+00 rsn:   0
  1 2r: 8.17E-17 2x: 1.24E+06 2u: 6.52E-11 ir: 2.55E-17 iu: 1.43E-11 rsn: stol

 Step    187 Time=  8.90000E+00 Dt=  5.00000E-02 [y] conv_reason: 4
  newton =   1 [     214] linear =     1 [       214] cuts =  0 [   0]
  --> SNES Linear/Non-Linear Iterations = 1 / 1
  --> SNES Residual: 0.817357E-16 0.817357E-18 0.254527E-16
  --> max change: dpmx=   0.0000E+00

== RICHARDS FLOW ===============================================================
  0 2r: 8.17E-17 2x: 0.00E+00 2u: 0.00E+00 ir: 2.55E-17 iu: 0.00E+00 rsn:   0
  1 2r: 8.17E-17 2x: 1.24E+06 2u: 6.52E-11 ir: 2.55E-17 iu: 1.43E-11 rsn: stol

 Step    188 Time=  8.95000E+00 Dt=  5.00000E-02 [y] conv_reason: 4
  newton =   1 [     215] linear =     1 [       215] cuts =  0 [   0]
  --> SNES Linear/Non-Linear Iterations = 1 / 1
  --> SNES Residual: 0.817357E-16 0.817357E-18 0.254527E-16
  --> max change: dpmx=   0.0000E+00

== RICHARDS FLOW ===============================================================
  0 2r: 8.17E-17 2x: 0.00E+00 2u: 0.00E+00 ir: 2.55E-17 iu: 0.00E+00 rsn:   0
  1 2r: 8.17E-17 2x: 1.24E+06 2u: 6.52E-11 ir: 2.55E-17 iu: 1.43E-11 rsn: stol

 Step    189 Time=  9.00000E+00 Dt=  5.00000E-02 [y] conv_reason: 4
  newton =   1 [     216] linear =     1 [       216] cuts =  0 [   0]
  --> SNES Linear/Non-Linear Iterations = 1 / 1
  --> SNES Residual: 0.817357E-16 0.817357E-18 0.254527E-16
  --> max change: dpmx=   0.0000E+00

== RICHARDS FLOW ===============================================================
  0 2r: 8.17E-17 2x: 0.00E+00 2u: 0.00E+00 ir: 2.55E-17 iu: 0.00E+00 rsn:   0
  1 2r: 8.17E-17 2x: 1.24E+06 2u: 6.52E-11 ir: 2.55E-17 iu: 1.43E-11 rsn: stol

 Step    190 Time=  9.05000E+00 Dt=  5.00000E-02 [y] conv_reason: 4
  newton =   1 [     217] linear =     1 [       217] cuts =  0 [   0]
  --> SNES Linear/Non-Linear Iterations = 1 / 1
  --> SNES Residual: 0.817357E-16 0.817357E-18 0.254527E-16
  --> max change: dpmx=   0.0000E+00

== RICHARDS FLOW ===============================================================
  0 2r: 8.17E-17 2x: 0.00E+00 2u: 0.00E+00 ir: 2.55E-17 iu: 0.00E+00 rsn:   0
  1 2r: 8.17E-17 2x: 1.24E+06 2u: 6.52E-11 ir: 2.55E-17 iu: 1.43E-11 rsn: stol

 Step    191 Time=  9.10000E+00 Dt=  5.00000E-02 [y] conv_reason: 4
  newton =   1 [     218] linear =     1 [       218] cuts =  0 [   0]
  --> SNES Linear/Non-Linear Iterations = 1 / 1
  --> SNES Residual: 0.817357E-16 0.817357E-18 0.254527E-16
  --> max change: dpmx=   0.0000E+00

== RICHARDS FLOW ===============================================================
  0 2r: 8.17E-17 2x: 0.00E+00 2u: 0.00E+00 ir: 2.55E-17 iu: 0.00E+00 rsn:   0
  1 2r: 8.17E-17 2x: 1.24E+06 2u: 6.52E-11 ir: 2.55E-17 iu: 1.43E-11 rsn: stol

 Step    192 Time=  9.15000E+00 Dt=  5.00000E-02 [y] conv_reason: 4
  newton =   1 [     219] linear =     1 [       219] cuts =  0 [   0]
  --> SNES Linear/Non-Linear Iterations = 1 / 1
  --> SNES Residual: 0.817357E-16 0.817357E-18 0.254527E-16
  --> max change: dpmx=   0.0000E+00

== RICHARDS FLOW ===============================================================
  0 2r: 8.17E-17 2x: 0.00E+00 2u: 0.00E+00 ir: 2.55E-17 iu: 0.00E+00 rsn:   0
  1 2r: 8.17E-17 2x: 1.24E+06 2u: 6.52E-11 ir: 2.55E-17 iu: 1.43E-11 rsn: stol

 Step    193 Time=  9.20000E+00 Dt=  5.00000E-02 [y] conv_reason: 4
  newton =   1 [     220] linear =     1 [       220] cuts =  0 [   0]
  --> SNES Linear/Non-Linear Iterations = 1 / 1
  --> SNES Residual: 0.817357E-16 0.817357E-18 0.254527E-16
  --> max change: dpmx=   0.0000E+00

== RICHARDS FLOW ===============================================================
  0 2r: 8.17E-17 2x: 0.00E+00 2u: 0.00E+00 ir: 2.55E-17 iu: 0.00E+00 rsn:   0
  1 2r: 8.17E-17 2x: 1.24E+06 2u: 6.52E-11 ir: 2.55E-17 iu: 1.43E-11 rsn: stol

 Step    194 Time=  9.25000E+00 Dt=  5.00000E-02 [y] conv_reason: 4
  newton =   1 [     221] linear =     1 [       221] cuts =  0 [   0]
  --> SNES Linear/Non-Linear Iterations = 1 / 1
  --> SNES Residual: 0.817357E-16 0.817357E-18 0.254527E-16
  --> max change: dpmx=   0.0000E+00

== RICHARDS FLOW ===============================================================
  0 2r: 8.17E-17 2x: 0.00E+00 2u: 0.00E+00 ir: 2.55E-17 iu: 0.00E+00 rsn:   0
  1 2r: 8.17E-17 2x: 1.24E+06 2u: 6.52E-11 ir: 2.55E-17 iu: 1.43E-11 rsn: stol

 Step    195 Time=  9.30000E+00 Dt=  5.00000E-02 [y] conv_reason: 4
  newton =   1 [     222] linear =     1 [       222] cuts =  0 [   0]
  --> SNES Linear/Non-Linear Iterations = 1 / 1
  --> SNES Residual: 0.817357E-16 0.817357E-18 0.254527E-16
  --> max change: dpmx=   0.0000E+00

== RICHARDS FLOW ===============================================================
  0 2r: 8.17E-17 2x: 0.00E+00 2u: 0.00E+00 ir: 2.55E-17 iu: 0.00E+00 rsn:   0
  1 2r: 8.17E-17 2x: 1.24E+06 2u: 6.52E-11 ir: 2.55E-17 iu: 1.43E-11 rsn: stol

 Step    196 Time=  9.35000E+00 Dt=  5.00000E-02 [y] conv_reason: 4
  newton =   1 [     223] linear =     1 [       223] cuts =  0 [   0]
  --> SNES Linear/Non-Linear Iterations = 1 / 1
  --> SNES Residual: 0.817357E-16 0.817357E-18 0.254527E-16
  --> max change: dpmx=   0.0000E+00

== RICHARDS FLOW ===============================================================
  0 2r: 8.17E-17 2x: 0.00E+00 2u: 0.00E+00 ir: 2.55E-17 iu: 0.00E+00 rsn:   0
  1 2r: 8.17E-17 2x: 1.24E+06 2u: 6.52E-11 ir: 2.55E-17 iu: 1.43E-11 rsn: stol

 Step    197 Time=  9.40000E+00 Dt=  5.00000E-02 [y] conv_reason: 4
  newton =   1 [     224] linear =     1 [       224] cuts =  0 [   0]
  --> SNES Linear/Non-Linear Iterations = 1 / 1
  --> SNES Residual: 0.817357E-16 0.817357E-18 0.254527E-16
  --> max change: dpmx=   0.0000E+00

== RICHARDS FLOW ===============================================================
  0 2r: 8.17E-17 2x: 0.00E+00 2u: 0.00E+00 ir: 2.55E-17 iu: 0.00E+00 rsn:   0
  1 2r: 8.17E-17 2x: 1.24E+06 2u: 6.52E-11 ir: 2.55E-17 iu: 1.43E-11 rsn: stol

 Step    198 Time=  9.45000E+00 Dt=  5.00000E-02 [y] conv_reason: 4
  newton =   1 [     225] linear =     1 [       225] cuts =  0 [   0]
  --> SNES Linear/Non-Linear Iterations = 1 / 1
  --> SNES Residual: 0.817357E-16 0.817357E-18 0.254527E-16
  --> max change: dpmx=   0.0000E+00

== RICHARDS FLOW ===============================================================
  0 2r: 8.17E-17 2x: 0.00E+00 2u: 0.00E+00 ir: 2.55E-17 iu: 0.00E+00 rsn:   0
  1 2r: 8.17E-17 2x: 1.24E+06 2u: 6.52E-11 ir: 2.55E-17 iu: 1.43E-11 rsn: stol

 Step    199 Time=  9.50000E+00 Dt=  5.00000E-02 [y] conv_reason: 4
  newton =   1 [     226] linear =     1 [       226] cuts =  0 [   0]
  --> SNES Linear/Non-Linear Iterations = 1 / 1
  --> SNES Residual: 0.817357E-16 0.817357E-18 0.254527E-16
  --> max change: dpmx=   0.0000E+00

== RICHARDS FLOW ===============================================================
  0 2r: 8.17E-17 2x: 0.00E+00 2u: 0.00E+00 ir: 2.55E-17 iu: 0.00E+00 rsn:   0
  1 2r: 8.17E-17 2x: 1.24E+06 2u: 6.52E-11 ir: 2.55E-17 iu: 1.43E-11 rsn: stol

 Step    200 Time=  9.55000E+00 Dt=  5.00000E-02 [y] conv_reason: 4
  newton =   1 [     227] linear =     1 [       227] cuts =  0 [   0]
  --> SNES Linear/Non-Linear Iterations = 1 / 1
  --> SNES Residual: 0.817357E-16 0.817357E-18 0.254527E-16
  --> max change: dpmx=   0.0000E+00

== RICHARDS FLOW ===============================================================
  0 2r: 8.17E-17 2x: 0.00E+00 2u: 0.00E+00 ir: 2.55E-17 iu: 0.00E+00 rsn:   0
  1 2r: 8.17E-17 2x: 1.24E+06 2u: 6.52E-11 ir: 2.55E-17 iu: 1.43E-11 rsn: stol

 Step    201 Time=  9.60000E+00 Dt=  5.00000E-02 [y] conv_reason: 4
  newton =   1 [     228] linear =     1 [       228] cuts =  0 [   0]
  --> SNES Linear/Non-Linear Iterations = 1 / 1
  --> SNES Residual: 0.817357E-16 0.817357E-18 0.254527E-16
  --> max change: dpmx=   0.0000E+00

== RICHARDS FLOW ===============================================================
  0 2r: 8.17E-17 2x: 0.00E+00 2u: 0.00E+00 ir: 2.55E-17 iu: 0.00E+00 rsn:   0
  1 2r: 8.17E-17 2x: 1.24E+06 2u: 6.52E-11 ir: 2.55E-17 iu: 1.43E-11 rsn: stol

 Step    202 Time=  9.65000E+00 Dt=  5.00000E-02 [y] conv_reason: 4
  newton =   1 [     229] linear =     1 [       229] cuts =  0 [   0]
  --> SNES Linear/Non-Linear Iterations = 1 / 1
  --> SNES Residual: 0.817357E-16 0.817357E-18 0.254527E-16
  --> max change: dpmx=   0.0000E+00

== RICHARDS FLOW ===============================================================
  0 2r: 8.17E-17 2x: 0.00E+00 2u: 0.00E+00 ir: 2.55E-17 iu: 0.00E+00 rsn:   0
  1 2r: 8.17E-17 2x: 1.24E+06 2u: 6.52E-11 ir: 2.55E-17 iu: 1.43E-11 rsn: stol

 Step    203 Time=  9.70000E+00 Dt=  5.00000E-02 [y] conv_reason: 4
  newton =   1 [     230] linear =     1 [       230] cuts =  0 [   0]
  --> SNES Linear/Non-Linear Iterations = 1 / 1
  --> SNES Residual: 0.817357E-16 0.817357E-18 0.254527E-16
  --> max change: dpmx=   0.0000E+00

== RICHARDS FLOW ===============================================================
  0 2r: 8.17E-17 2x: 0.00E+00 2u: 0.00E+00 ir: 2.55E-17 iu: 0.00E+00 rsn:   0
  1 2r: 8.17E-17 2x: 1.24E+06 2u: 6.52E-11 ir: 2.55E-17 iu: 1.43E-11 rsn: stol

 Step    204 Time=  9.75000E+00 Dt=  5.00000E-02 [y] conv_reason: 4
  newton =   1 [     231] linear =     1 [       231] cuts =  0 [   0]
  --> SNES Linear/Non-Linear Iterations = 1 / 1
  --> SNES Residual: 0.817357E-16 0.817357E-18 0.254527E-16
  --> max change: dpmx=   0.0000E+00

== RICHARDS FLOW ===============================================================
  0 2r: 8.17E-17 2x: 0.00E+00 2u: 0.00E+00 ir: 2.55E-17 iu: 0.00E+00 rsn:   0
  1 2r: 8.17E-17 2x: 1.24E+06 2u: 6.52E-11 ir: 2.55E-17 iu: 1.43E-11 rsn: stol

 Step    205 Time=  9.80000E+00 Dt=  5.00000E-02 [y] conv_reason: 4
  newton =   1 [     232] linear =     1 [       232] cuts =  0 [   0]
  --> SNES Linear/Non-Linear Iterations = 1 / 1
  --> SNES Residual: 0.817357E-16 0.817357E-18 0.254527E-16
  --> max change: dpmx=   0.0000E+00

== RICHARDS FLOW ===============================================================
  0 2r: 8.17E-17 2x: 0.00E+00 2u: 0.00E+00 ir: 2.55E-17 iu: 0.00E+00 rsn:   0
  1 2r: 8.17E-17 2x: 1.24E+06 2u: 6.52E-11 ir: 2.55E-17 iu: 1.43E-11 rsn: stol

 Step    206 Time=  9.85000E+00 Dt=  5.00000E-02 [y] conv_reason: 4
  newton =   1 [     233] linear =     1 [       233] cuts =  0 [   0]
  --> SNES Linear/Non-Linear Iterations = 1 / 1
  --> SNES Residual: 0.817357E-16 0.817357E-18 0.254527E-16
  --> max change: dpmx=   0.0000E+00

== RICHARDS FLOW ===============================================================
  0 2r: 8.17E-17 2x: 0.00E+00 2u: 0.00E+00 ir: 2.55E-17 iu: 0.00E+00 rsn:   0
  1 2r: 8.17E-17 2x: 1.24E+06 2u: 6.52E-11 ir: 2.55E-17 iu: 1.43E-11 rsn: stol

 Step    207 Time=  9.90000E+00 Dt=  5.00000E-02 [y] conv_reason: 4
  newton =   1 [     234] linear =     1 [       234] cuts =  0 [   0]
  --> SNES Linear/Non-Linear Iterations = 1 / 1
  --> SNES Residual: 0.817357E-16 0.817357E-18 0.254527E-16
  --> max change: dpmx=   0.0000E+00

== RICHARDS FLOW ===============================================================
  0 2r: 8.17E-17 2x: 0.00E+00 2u: 0.00E+00 ir: 2.55E-17 iu: 0.00E+00 rsn:   0
  1 2r: 8.17E-17 2x: 1.24E+06 2u: 6.52E-11 ir: 2.55E-17 iu: 1.43E-11 rsn: stol

 Step    208 Time=  9.95000E+00 Dt=  5.00000E-02 [y] conv_reason: 4
  newton =   1 [     235] linear =     1 [       235] cuts =  0 [   0]
  --> SNES Linear/Non-Linear Iterations = 1 / 1
  --> SNES Residual: 0.817357E-16 0.817357E-18 0.254527E-16
  --> max change: dpmx=   0.0000E+00

== RICHARDS FLOW ===============================================================
  0 2r: 8.17E-17 2x: 0.00E+00 2u: 0.00E+00 ir: 2.55E-17 iu: 0.00E+00 rsn:   0
  1 2r: 8.17E-17 2x: 1.24E+06 2u: 6.52E-11 ir: 2.55E-17 iu: 1.43E-11 rsn: stol

 Step    209 Time=  1.00000E+01 Dt=  5.00000E-02 [y] conv_reason: 4
  newton =   1 [     236] linear =     1 [       236] cuts =  0 [   0]
  --> SNES Linear/Non-Linear Iterations = 1 / 1
  --> SNES Residual: 0.817357E-16 0.817357E-18 0.254527E-16
  --> max change: dpmx=   0.0000E+00

 --> write tecplot output file: HW5_1a-004.tec
      0.00 Seconds to write to Tecplot file(s)

PMCSubsurfaceFlow
 Total Time: 4.2245E-01 seconds

 FLOW TS SNES steps = 209  newton = 236  linear = 236  cuts = 0
 FLOW TS SNES Wasted Linear Iterations = 0
 FLOW TS SNES Wasted Newton Iterations = 0
 FLOW TS SNES time = 0.3 seconds

 Wall Clock Time:  1.8246E+00 [sec]   3.0410E-02 [min]   5.0683E-04 [hr]
