
=================
  PFLOTRAN v6.0
=================

"grid_structured_type" set to default value.
pflotran card:: NUMERICAL_METHODS
pflotran card:: CHEMISTRY
pflotran card:: GRID
pflotran card:: FLUID_PROPERTY
"FLUID_PROPERTY,diffusion_coefficient units" set to default value.
pflotran card:: MATERIAL_PROPERTY
  Name :: soil1
pflotran card:: MATERIAL_PROPERTY
  Name :: soil2
pflotran card:: MATERIAL_PROPERTY
  Name :: soil3
pflotran card:: MATERIAL_PROPERTY
  Name :: soil4
pflotran card:: CHARACTERISTIC_CURVES
  Name :: cc1
 WARNING: Mualem-van Genuchten relative permeability function is being used without SMOOTH option.
pflotran card:: OUTPUT
"OUTPUT,SNAPSHOT_FILE,FORMAT,HDF5" set to default value.
pflotran card:: TIME
pflotran card:: REGION
all
pflotran card:: REGION
layer1
pflotran card:: REGION
layer2
pflotran card:: REGION
layer3
pflotran card:: REGION
layer4
pflotran card:: REGION
west
pflotran card:: REGION
east
pflotran card:: REGION
top
pflotran card:: REGION
injection_well
pflotran card:: REGION
extraction_well
pflotran card:: REGION
Obs_pt_center
pflotran card:: REGION
Obs_pt_center_lower
pflotran card:: REGION
Obs_pt_west
pflotran card:: REGION
Obs_pt_east
pflotran card:: REGION
Obs_pt_north
pflotran card:: REGION
Obs_pt_south
pflotran card:: OBSERVATION
pflotran card:: OBSERVATION
pflotran card:: OBSERVATION
pflotran card:: OBSERVATION
pflotran card:: OBSERVATION
pflotran card:: OBSERVATION
pflotran card:: FLOW_CONDITION
initial
pflotran card:: FLOW_CONDITION
river
pflotran card:: FLOW_CONDITION
recharge
pflotran card:: FLOW_CONDITION
injection
pflotran card:: FLOW_CONDITION
extraction
pflotran card:: TRANSPORT_CONDITION
initial
Constraint: initial
Constraint Species: Tracer1
Constraint Species: Tracer2
pflotran card:: TRANSPORT_CONDITION
west
Constraint: west
Constraint Species: Tracer1
Constraint Species: Tracer2
pflotran card:: TRANSPORT_CONDITION
injection
Constraint: injection
Constraint Species: Tracer1
Constraint Species: Tracer2
pflotran card:: INITIAL_CONDITION
"Initial Condition name" set to default value.
pflotran card:: BOUNDARY_CONDITION
pflotran card:: BOUNDARY_CONDITION
pflotran card:: BOUNDARY_CONDITION
pflotran card:: SOURCE_SINK
pflotran card:: SOURCE_SINK
pflotran card:: STRATA
pflotran card:: STRATA
pflotran card:: STRATA
pflotran card:: STRATA
pflotran card:: END_SUBSURFACE
--------------------------------------------------------------------------------

     2  Primary Species

              Tracer1               Tracer2             

     0  Secondary Complex Species



     0  Active Gas Species



     0  Passive Gas Species



     0  Reference Minerals



     0  Kinetic Mineral Reactions



     0  Ion Exchange Reactions

     0  Ion Exchange Cations
--------------------------------------------------------------------------------

Process Decomposition

Extent of Gridded Domain
 X: 0.000000E+00 - 5.000000E+03
 Y: 0.000000E+00 - 2.500000E+03
 Z: 0.000000E+00 - 1.000000E+02

Size of Gridded Domain
 Number of grid cells: 102000
 Maximum number of grid cells per process: 26000
 Minimum number of grid cells per process: 25000

Number of active grid cells: 102000
Number of inactive grid cells: 0

  Setting up TRAN Realization
  Finished setting up TRAN Realization

=+=+=+=+=+=+=+=+=+=+=+=+=+=+=+=+=+=+=+=+=+=+=+=+=+=+=+=+=+=+=+=+=+=+=+=+=+=+=+=+

  Initial Condition

--------------------------------------------------------------------------------
          Flow Condition:   initial
     Transport Condition:   initial
                  Region:   all
--------------------------------------------------------------------------------

  Flow Condition: initial
    Synchronize time with update: no
    Time units: yr
    Length units: m
      Datum:
        Dataset: Unnamed Ascii Dataset
          Type: dataset_ascii_type
          Transient: no
          Array Rank:  3

    Sub Condition: pressure
      Type: hydrostatic
      Gradient:
        Dataset: Unnamed Ascii Dataset
          Type: dataset_ascii_type
          Transient: no
          Array Rank:  3
      Data:
        Dataset: Unnamed Ascii Dataset
          Type: dataset_ascii_type
          Transient: no
          Array Rank:  1

--------------------------------------------------------------------------------

  Transport Condition: initial

  Constraint: initial

  species       molality
  Tracer1       1.0028E-10
  Tracer2       1.0028E-10


--------------------------------------------------------------------------------

=+=+=+=+=+=+=+=+=+=+=+=+=+=+=+=+=+=+=+=+=+=+=+=+=+=+=+=+=+=+=+=+=+=+=+=+=+=+=+=+

  Boundary Condition

--------------------------------------------------------------------------------
          Flow Condition:   initial
     Transport Condition:   west
                  Region:   west
--------------------------------------------------------------------------------

  Flow Condition: initial
    Synchronize time with update: no
    Time units: yr
    Length units: m
      Datum:
        Dataset: Unnamed Ascii Dataset
          Type: dataset_ascii_type
          Transient: no
          Array Rank:  3

    Sub Condition: pressure
      Type: hydrostatic
      Gradient:
        Dataset: Unnamed Ascii Dataset
          Type: dataset_ascii_type
          Transient: no
          Array Rank:  3
      Data:
        Dataset: Unnamed Ascii Dataset
          Type: dataset_ascii_type
          Transient: no
          Array Rank:  1

--------------------------------------------------------------------------------

  Transport Condition: west

  Constraint: west

  species       molality
  Tracer1       1.0028E-10
  Tracer2       1.0028E+00


--------------------------------------------------------------------------------

=+=+=+=+=+=+=+=+=+=+=+=+=+=+=+=+=+=+=+=+=+=+=+=+=+=+=+=+=+=+=+=+=+=+=+=+=+=+=+=+

  Boundary Condition

--------------------------------------------------------------------------------
          Flow Condition:   river
     Transport Condition:   initial
                  Region:   east
--------------------------------------------------------------------------------

  Flow Condition: river
    Synchronize time with update: no
    Time units: yr
    Length units: m
      Datum:
        Dataset: Unnamed Ascii Dataset
          Type: dataset_ascii_type
          Filename: river_stage.txt
          Is transient?: yes
          Number of times:      5
          Is cyclic?: yes
          Buffer:
            Rank:  2
            Dims:    3   5
            Buffer Slice Size:   0
          Array Rank:  3

    Sub Condition: pressure
      Type: seepage
      Gradient:
      Data:
        Dataset: Unnamed Ascii Dataset
          Type: dataset_ascii_type
          Transient: no
          Array Rank:  1

--------------------------------------------------------------------------------

  Transport Condition: initial

  Constraint: initial

  species       molality
  Tracer1       1.0028E-10
  Tracer2       1.0028E-10


--------------------------------------------------------------------------------

=+=+=+=+=+=+=+=+=+=+=+=+=+=+=+=+=+=+=+=+=+=+=+=+=+=+=+=+=+=+=+=+=+=+=+=+=+=+=+=+

  Boundary Condition

--------------------------------------------------------------------------------
          Flow Condition:   recharge
     Transport Condition:   initial
                  Region:   top
--------------------------------------------------------------------------------

  Flow Condition: recharge
    Synchronize time with update: no
    Time units: yr
    Length units: m
      Datum:

    Sub Condition: pressure
      Type: neumann
      Gradient:
      Data:
        Dataset: Unnamed Ascii Dataset
          Type: dataset_ascii_type
          Is transient?: yes
          Number of times:      6
          Is cyclic?: no
          Buffer:
            Rank:  2
            Dims:    1   6
            Buffer Slice Size:   0
          Array Rank:  1

--------------------------------------------------------------------------------

  Transport Condition: initial

  Constraint: initial

  species       molality
  Tracer1       1.0028E-10
  Tracer2       1.0028E-10


--------------------------------------------------------------------------------

=+=+=+=+=+=+=+=+=+=+=+=+=+=+=+=+=+=+=+=+=+=+=+=+=+=+=+=+=+=+=+=+=+=+=+=+=+=+=+=+

  Source Sink

--------------------------------------------------------------------------------
          Flow Condition:   injection
     Transport Condition:   injection
                  Region:   injection_well
--------------------------------------------------------------------------------

  Flow Condition: injection
    Synchronize time with update: no
    Time units: yr
    Length units: m
      Datum:

    Sub Condition: rate
      Type: scaled volumetric rate
      Gradient:
      Data:
        Dataset: Unnamed Ascii Dataset
          Type: dataset_ascii_type
          Transient: no
          Array Rank:  1

--------------------------------------------------------------------------------

  Transport Condition: injection

  Constraint: injection

  species       molality
  Tracer1       1.0028E+00
  Tracer2       1.0028E-10


--------------------------------------------------------------------------------

=+=+=+=+=+=+=+=+=+=+=+=+=+=+=+=+=+=+=+=+=+=+=+=+=+=+=+=+=+=+=+=+=+=+=+=+=+=+=+=+

  Source Sink

--------------------------------------------------------------------------------
          Flow Condition:   extraction
     Transport Condition:   initial
                  Region:   extraction_well
--------------------------------------------------------------------------------

  Flow Condition: extraction
    Synchronize time with update: no
    Time units: yr
    Length units: m
      Datum:

    Sub Condition: rate
      Type: scaled volumetric rate
      Gradient:
      Data:
        Dataset: Unnamed Ascii Dataset
          Type: dataset_ascii_type
          Transient: no
          Array Rank:  1

--------------------------------------------------------------------------------

  Transport Condition: initial

  Constraint: initial

  species       molality
  Tracer1       1.0028E-10
  Tracer2       1.0028E-10


--------------------------------------------------------------------------------
Default HDF5 method is used in Initialization
  Beginning setup of FLOW SNES
 number of dofs =   1, number of phases =   1
 mode = Richards: p
  Finished setting up FLOW SNES
mode = Reactive Transport
  Beginning setup of TRAN SNES
  Finished setting up TRAN SNES

 Requested processors and decomposition =     4, npx,y,z=   -1  -1  -1
 Actual decomposition: npx,y,z=    2   2   1


FLOW Time Stepper SNES
      maximum number of steps: 999999
constant time steps threshold: 5
       maximum number of cuts: 16
             reduction factor: 5.000000E-01
        maximum growth factor: 2.000000E+00
                 acceleration: on
       acceleration threshold: 5
       number of ramp entries: 5
                ramp entry #1: 2.0000
                ramp entry #2: 2.0000
                ramp entry #3: 2.0000
                ramp entry #4: 2.0000
                ramp entry #5: 2.0000
                ramp entry #6: 1.8000
                ramp entry #7: 1.6000
                ramp entry #8: 1.4000
                ramp entry #9: 1.2000
               ramp entry #10: 1.0000
               ramp entry #11: 1.0000
               ramp entry #12: 1.0000
               ramp entry #13: 1.0000

FLOW Newton Solver
                         atol: 1.000000E-50
                         rtol: 1.000000E-08
                         stol: 1.000000E-08
                         dtol: 1.000000E+04
                      maxnorm: 1.000000E+20
                    inftolres: -9.990000E+02
                    inftolupd: 1.000000E+00
                 inftolrelupd: -9.990000E+02
                 inftolsclres: -9.990000E+02
                     max iter: 50
                     min iter: 1
                         maxf: 10000
                  matrix type: baij
         precond. matrix type: baij
               inexact newton: off
            print convergence: on
   print detailed convergence: off
          check infinity norm: on

FLOW Linear Solver
                       solver: bcgs
               preconditioner: bjacobi
                         atol: 1.000000E-50
                         rtol: 1.000000E-05
                         dtol: 1.000000E+04
            maximum iteration: 10000

TRAN Time Stepper SNES
      maximum number of steps: 999999
constant time steps threshold: 5
       maximum number of cuts: 16
             reduction factor: 5.000000E-01
        maximum growth factor: 2.000000E+00
                 acceleration: on
       acceleration threshold: 5
       number of ramp entries: 5
                ramp entry #1: 2.0000
                ramp entry #2: 2.0000
                ramp entry #3: 2.0000
                ramp entry #4: 2.0000
                ramp entry #5: 2.0000
                ramp entry #6: 1.8000
                ramp entry #7: 1.6000
                ramp entry #8: 1.4000
                ramp entry #9: 1.2000
               ramp entry #10: 1.0000
               ramp entry #11: 1.0000
               ramp entry #12: 1.0000
               ramp entry #13: 1.0000

TRAN Newton Solver
                         atol: 1.000000E-50
                         rtol: 1.000000E-08
                         stol: 1.000000E-08
                         dtol: 1.000000E+04
                      maxnorm: 1.000000E+20
                    inftolres: -9.990000E+02
                    inftolupd: -9.990000E+02
                 inftolrelupd: -9.990000E+02
                 inftolsclres: -9.990000E+02
                     max iter: 50
                     min iter: 1
                         maxf: 10000
                  matrix type: baij
         precond. matrix type: baij
               inexact newton: off
            print convergence: on
   print detailed convergence: off
          check infinity norm: on

TRAN Linear Solver
                       solver: bcgs
               preconditioner: bjacobi
                         atol: 1.000000E-50
                         rtol: 1.000000E-05
                         dtol: 1.000000E+04
            maximum iteration: 10000

 --> creating hdf5 output file: 3D_solute.h5
      0.18 Seconds to write HDF5 file.
 --> write tecplot output file: 3D_solute-000.tec
max_local_size_saved:     26000
 --> write tecplot velocity output file: 3D_solute-vel-000.tec
      3.61 Seconds to write to Tecplot file(s)

 Finished Initialization


== RICHARDS FLOW ===============================================================
  0 2r: 3.55E+01 2x: 0.00E+00 2u: 0.00E+00 ir: 1.22E+01 iu: 0.00E+00 rsn:   0
  1 2r: 6.10E+01 2x: 1.68E+08 2u: 1.03E+06 ir: 7.00E+00 iu: 8.42E+04 rsn:   0
  2 2r: 1.23E+02 2x: 1.68E+08 2u: 5.54E+05 ir: 3.10E+01 iu: 1.48E+04 rsn:   0
  3 2r: 1.88E+01 2x: 1.68E+08 2u: 6.25E+04 ir: 3.27E+00 iu: 5.74E+03 rsn:   0
  4 2r: 4.66E+00 2x: 1.68E+08 2u: 4.39E+04 ir: 8.44E-01 iu: 3.80E+03 rsn:   0
  5 2r: 8.35E-01 2x: 1.68E+08 2u: 1.79E+04 ir: 1.44E-01 iu: 1.07E+03 rsn:   0
  6 2r: 1.60E-01 2x: 1.68E+08 2u: 9.08E+03 ir: 4.47E-02 iu: 5.77E+02 rsn:   0
  7 2r: 3.42E-02 2x: 1.68E+08 2u: 4.31E+03 ir: 1.68E-02 iu: 3.44E+02 rsn:   0
  8 2r: 2.03E-03 2x: 1.68E+08 2u: 8.62E+02 ir: 1.20E-03 iu: 1.25E+02 rsn:   0
  9 2r: 1.70E-06 2x: 1.68E+08 2u: 3.15E+01 ir: 1.09E-06 iu: 5.59E+00 rsn:   0
 10 2r: 3.36E-11 2x: 1.68E+08 2u: 1.62E-02 ir: 1.43E-11 iu: 2.53E-03 rsn: itol_upd

 Step      1 Time=  2.73973E-05 Dt=  2.73973E-05 [y] conv_reason: 11
  newton =  10 [      10] linear =   477 [       477] cuts =  0 [   0]
  --> SNES Linear/Non-Linear Iterations = 477 / 10
  --> SNES Residual: 0.336010E-10 0.329422E-15 0.142553E-10
  --> max change: dpmx=   8.4673E+04

== REACTIVE TRANSPORT ==========================================================
  0 2r: 4.36E+02 2x: 0.00E+00 2u: 0.00E+00 ir: 2.01E+02 iu: 0.00E+00 rsn:   0
  1 2r: 3.78E-05 2x: 9.09E-02 2u: 9.09E-02 ir: 1.76E-05 iu: 3.91E-02 rsn:   0
  2 2r: 7.04E-14 2x: 9.09E-02 2u: 9.29E-09 ir: 5.68E-14 iu: 4.96E-09 rsn: rtol

 Step      1 Time=  2.73973E-05 Dt=  2.73973E-05 [y] conv_reason: 3
  newton =   2 [       2] linear =     2 [         2] cuts =  0 [   0]
  --> SNES Linear/Non-Linear Iterations = 2 / 2
  --> SNES Residual: 0.704137E-13 0.704137E-13 0.568434E-13
  --> max change:  dcmx=   3.9071E-02  dc/dt=   4.5221E-05 [mol/s]

== RICHARDS FLOW ===============================================================
  0 2r: 5.33E+00 2x: 0.00E+00 2u: 0.00E+00 ir: 1.07E+00 iu: 0.00E+00 rsn:   0
  1 2r: 3.46E-01 2x: 1.68E+08 2u: 5.80E+04 ir: 8.76E-02 iu: 7.11E+02 rsn:   0
  2 2r: 3.04E-02 2x: 1.68E+08 2u: 7.26E+02 ir: 1.43E-02 iu: 8.25E+01 rsn:   0
  3 2r: 1.60E-03 2x: 1.68E+08 2u: 1.26E+02 ir: 8.49E-04 iu: 2.01E+01 rsn:   0
  4 2r: 6.88E-06 2x: 1.68E+08 2u: 6.96E+00 ir: 3.80E-06 iu: 1.34E+00 rsn:   0
  5 2r: 1.38E-10 2x: 1.68E+08 2u: 2.86E-02 ir: 7.71E-11 iu: 6.05E-03 rsn: itol_upd

 Step      2 Time=  3.64384E-05 Dt=  9.04110E-06 [y] conv_reason: 11
  newton =   5 [      15] linear =   216 [       693] cuts =  0 [   0]
  --> SNES Linear/Non-Linear Iterations = 216 / 5
  --> SNES Residual: 0.138173E-09 0.135464E-14 0.771365E-10
  --> max change: dpmx=   7.1023E+02

== REACTIVE TRANSPORT ==========================================================
  0 2r: 4.20E+02 2x: 0.00E+00 2u: 0.00E+00 ir: 1.93E+02 iu: 0.00E+00 rsn:   0
  1 2r: 1.39E-06 2x: 1.21E-01 2u: 2.97E-02 ir: 6.44E-07 iu: 1.27E-02 rsn: rtol

 Step      2 Time=  3.64384E-05 Dt=  9.04110E-06 [y] conv_reason: 3
  newton =   1 [       3] linear =     1 [         3] cuts =  0 [   0]
  --> SNES Linear/Non-Linear Iterations = 1 / 1
  --> SNES Residual: 0.139271E-05 0.139271E-05 0.644000E-06
  --> max change:  dcmx=   1.2723E-02  dc/dt=   4.4622E-05 [mol/s]

== RICHARDS FLOW ===============================================================
  0 2r: 5.51E+00 2x: 0.00E+00 2u: 0.00E+00 ir: 1.06E+00 iu: 0.00E+00 rsn:   0
  1 2r: 7.61E-02 2x: 1.68E+08 2u: 1.30E+04 ir: 2.04E-02 iu: 1.69E+02 rsn:   0
  2 2r: 6.67E-04 2x: 1.68E+08 2u: 4.58E+01 ir: 4.00E-04 iu: 7.88E+00 rsn:   0
  3 2r: 5.52E-06 2x: 1.68E+08 2u: 2.23E+00 ir: 3.84E-06 iu: 7.72E-01 rsn: itol_upd

 Step      3 Time=  3.94219E-05 Dt=  2.98356E-06 [y] conv_reason: 11
  newton =   3 [      18] linear =   108 [       801] cuts =  0 [   0]
  --> SNES Linear/Non-Linear Iterations = 108 / 3
  --> SNES Residual: 0.552414E-05 0.541583E-10 0.384388E-05
  --> max change: dpmx=   1.6939E+02

== REACTIVE TRANSPORT ==========================================================
  0 2r: 4.15E+02 2x: 0.00E+00 2u: 0.00E+00 ir: 1.91E+02 iu: 0.00E+00 rsn:   0
  1 2r: 6.78E-08 2x: 1.30E-01 2u: 9.75E-03 ir: 2.33E-08 iu: 4.18E-03 rsn: rtol

 Step      3 Time=  3.94219E-05 Dt=  2.98356E-06 [y] conv_reason: 3
  newton =   1 [       4] linear =     1 [         4] cuts =  0 [   0]
  --> SNES Linear/Non-Linear Iterations = 1 / 1
  --> SNES Residual: 0.677775E-07 0.677775E-07 0.232837E-07
  --> max change:  dcmx=   4.1800E-03  dc/dt=   4.4426E-05 [mol/s]

== RICHARDS FLOW ===============================================================
  0 2r: 5.51E+00 2x: 0.00E+00 2u: 0.00E+00 ir: 1.05E+00 iu: 0.00E+00 rsn:   0
  1 2r: 1.41E-01 2x: 1.68E+08 2u: 1.66E+04 ir: 3.68E-02 iu: 2.95E+02 rsn:   0
  2 2r: 1.24E-03 2x: 1.68E+08 2u: 1.33E+02 ir: 7.27E-04 iu: 1.51E+01 rsn:   0
  3 2r: 2.96E-06 2x: 1.68E+08 2u: 3.66E+00 ir: 1.82E-06 iu: 7.57E-01 rsn: itol_upd

 Step      4 Time=  4.53890E-05 Dt=  5.96712E-06 [y] conv_reason: 11
  newton =   3 [      21] linear =   120 [       921] cuts =  0 [   0]
  --> SNES Linear/Non-Linear Iterations = 120 / 3
  --> SNES Residual: 0.295721E-05 0.289923E-10 0.182210E-05
  --> max change: dpmx=   2.9369E+02

== REACTIVE TRANSPORT ==========================================================
  0 2r: 4.14E+02 2x: 0.00E+00 2u: 0.00E+00 ir: 1.90E+02 iu: 0.00E+00 rsn:   0
  1 2r: 4.48E-07 2x: 1.50E-01 2u: 1.94E-02 ir: 1.84E-07 iu: 8.29E-03 rsn: rtol

 Step      4 Time=  4.53890E-05 Dt=  5.96712E-06 [y] conv_reason: 3
  newton =   1 [       5] linear =     1 [         5] cuts =  0 [   0]
  --> SNES Linear/Non-Linear Iterations = 1 / 1
  --> SNES Residual: 0.447580E-06 0.447580E-06 0.184094E-06
  --> max change:  dcmx=   8.2868E-03  dc/dt=   4.4037E-05 [mol/s]

== RICHARDS FLOW ===============================================================
  0 2r: 5.48E+00 2x: 0.00E+00 2u: 0.00E+00 ir: 1.04E+00 iu: 0.00E+00 rsn:   0
  1 2r: 2.49E-01 2x: 1.68E+08 2u: 1.84E+04 ir: 7.47E-02 iu: 5.62E+02 rsn:   0
  2 2r: 2.51E-03 2x: 1.68E+08 2u: 4.29E+02 ir: 1.60E-03 iu: 4.53E+01 rsn:   0
  3 2r: 1.39E-05 2x: 1.68E+08 2u: 1.66E+01 ir: 9.18E-06 iu: 2.40E+00 rsn:   0
  4 2r: 1.44E-09 2x: 1.68E+08 2u: 1.13E-01 ir: 1.00E-09 iu: 2.51E-02 rsn: itol_upd

 Step      5 Time=  5.73233E-05 Dt=  1.19342E-05 [y] conv_reason: 11
  newton =   4 [      25] linear =   168 [      1089] cuts =  0 [   0]
  --> SNES Linear/Non-Linear Iterations = 168 / 4
  --> SNES Residual: 0.143532E-08 0.140718E-13 0.100255E-08
  --> max change: dpmx=   5.5635E+02

== REACTIVE TRANSPORT ==========================================================
  0 2r: 4.10E+02 2x: 0.00E+00 2u: 0.00E+00 ir: 1.88E+02 iu: 0.00E+00 rsn:   0
  1 2r: 3.27E-06 2x: 1.88E-01 2u: 3.81E-02 ir: 1.44E-06 iu: 1.63E-02 rsn: rtol

 Step      5 Time=  5.73233E-05 Dt=  1.19342E-05 [y] conv_reason: 3
  newton =   1 [       6] linear =     1 [         6] cuts =  0 [   0]
  --> SNES Linear/Non-Linear Iterations = 1 / 1
  --> SNES Residual: 0.327212E-05 0.327212E-05 0.143892E-05
  --> max change:  dcmx=   1.6286E-02  dc/dt=   4.3273E-05 [mol/s]

== RICHARDS FLOW ===============================================================
  0 2r: 5.42E+00 2x: 0.00E+00 2u: 0.00E+00 ir: 1.02E+00 iu: 0.00E+00 rsn:   0
  1 2r: 4.41E-01 2x: 1.68E+08 2u: 2.04E+04 ir: 2.01E-01 iu: 1.03E+03 rsn:   0
  2 2r: 5.22E-02 2x: 1.68E+08 2u: 1.16E+03 ir: 4.34E-02 iu: 3.86E+02 rsn:   0
  3 2r: 9.95E-04 2x: 1.68E+08 2u: 1.52E+02 ir: 7.03E-04 iu: 9.10E+01 rsn:   0
  4 2r: 1.23E-06 2x: 1.68E+08 2u: 2.31E+00 ir: 8.69E-07 iu: 1.07E+00 rsn:   0
  5 2r: 1.54E-11 2x: 1.68E+08 2u: 3.39E-03 ir: 1.50E-12 iu: 1.32E-03 rsn: itol_upd

 Step      6 Time=  8.11918E-05 Dt=  2.38685E-05 [y] conv_reason: 11
  newton =   5 [      30] linear =   223 [      1312] cuts =  0 [   0]
  --> SNES Linear/Non-Linear Iterations = 223 / 5
  --> SNES Residual: 0.153589E-10 0.150577E-15 0.149747E-11
  --> max change: dpmx=   1.0107E+03

== REACTIVE TRANSPORT ==========================================================
  0 2r: 4.04E+02 2x: 0.00E+00 2u: 0.00E+00 ir: 1.85E+02 iu: 0.00E+00 rsn:   0
  1 2r: 2.46E-05 2x: 2.62E-01 2u: 7.40E-02 ir: 1.10E-05 iu: 3.15E-02 rsn:   0
  2 2r: 4.60E-13 2x: 2.62E-01 2u: 5.21E-09 ir: 2.04E-13 iu: 2.68E-09 rsn: rtol

 Step      6 Time=  8.11918E-05 Dt=  2.38685E-05 [y] conv_reason: 3
  newton =   2 [       8] linear =     2 [         8] cuts =  0 [   0]
  --> SNES Linear/Non-Linear Iterations = 2 / 2
  --> SNES Residual: 0.459515E-12 0.459515E-12 0.204323E-12
  --> max change:  dcmx=   3.1461E-02  dc/dt=   4.1796E-05 [mol/s]

== RICHARDS FLOW ===============================================================
  0 2r: 5.31E+00 2x: 0.00E+00 2u: 0.00E+00 ir: 9.86E-01 iu: 0.00E+00 rsn:   0
  1 2r: 3.27E-01 2x: 1.68E+08 2u: 5.89E+03 ir: 2.20E-01 iu: 6.72E+02 rsn:   0
  2 2r: 1.68E-03 2x: 1.68E+08 2u: 8.93E+02 ir: 1.18E-03 iu: 4.37E+02 rsn:   0
  3 2r: 6.60E-07 2x: 1.68E+08 2u: 1.10E+00 ir: 4.65E-07 iu: 4.43E-01 rsn: itol_upd

 Step      7 Time=  8.90684E-05 Dt=  7.87660E-06 [y] conv_reason: 11
  newton =   3 [      33] linear =   116 [      1428] cuts =  0 [   0]
  --> SNES Linear/Non-Linear Iterations = 116 / 3
  --> SNES Residual: 0.659640E-06 0.646706E-11 0.465430E-06
  --> max change: dpmx=   8.5532E+02

== REACTIVE TRANSPORT ==========================================================
  0 2r: 3.91E+02 2x: 0.00E+00 2u: 0.00E+00 ir: 1.79E+02 iu: 0.00E+00 rsn:   0
  1 2r: 1.78E-06 2x: 2.86E-01 2u: 2.42E-02 ir: 7.14E-07 iu: 1.03E-02 rsn: rtol

 Step      7 Time=  8.90684E-05 Dt=  7.87660E-06 [y] conv_reason: 3
  newton =   1 [       9] linear =     1 [         9] cuts =  0 [   0]
  --> SNES Linear/Non-Linear Iterations = 1 / 1
  --> SNES Residual: 0.177833E-05 0.177833E-05 0.714075E-06
  --> max change:  dcmx=   1.0262E-02  dc/dt=   4.1315E-05 [mol/s]

== RICHARDS FLOW ===============================================================
  0 2r: 5.30E+00 2x: 0.00E+00 2u: 0.00E+00 ir: 9.76E-01 iu: 0.00E+00 rsn:   0
  1 2r: 2.13E-01 2x: 1.68E+08 2u: 1.01E+04 ir: 1.09E-01 iu: 6.11E+02 rsn:   0
  2 2r: 2.76E-02 2x: 1.68E+08 2u: 3.39E+02 ir: 1.95E-02 iu: 1.29E+02 rsn:   0
  3 2r: 3.77E-03 2x: 1.68E+08 2u: 7.37E+01 ir: 2.32E-03 iu: 3.63E+01 rsn:   0
  4 2r: 1.58E-08 2x: 1.68E+08 2u: 8.33E+00 ir: 6.68E-09 iu: 4.23E+00 rsn: rtol

 Step      8 Time=  1.04822E-04 Dt=  1.57532E-05 [y] conv_reason: 3
  newton =   4 [      37] linear =   164 [      1592] cuts =  0 [   0]
  --> SNES Linear/Non-Linear Iterations = 164 / 4
  --> SNES Residual: 0.157533E-07 0.154444E-12 0.668316E-08
  --> max change: dpmx=   6.0357E+02

== REACTIVE TRANSPORT ==========================================================
  0 2r: 3.87E+02 2x: 0.00E+00 2u: 0.00E+00 ir: 1.77E+02 iu: 0.00E+00 rsn:   0
  1 2r: 1.00E-05 2x: 3.33E-01 2u: 4.75E-02 ir: 3.44E-06 iu: 2.01E-02 rsn:   0
  2 2r: 4.22E-13 2x: 3.33E-01 2u: 1.31E-09 ir: 2.56E-13 iu: 4.98E-10 rsn: rtol

 Step      8 Time=  1.04822E-04 Dt=  1.57532E-05 [y] conv_reason: 3
  newton =   2 [      11] linear =     2 [        11] cuts =  0 [   0]
  --> SNES Linear/Non-Linear Iterations = 2 / 2
  --> SNES Residual: 0.421790E-12 0.421790E-12 0.255795E-12
  --> max change:  dcmx=   2.0057E-02  dc/dt=   4.0373E-05 [mol/s]

== RICHARDS FLOW ===============================================================
  0 2r: 5.25E+00 2x: 0.00E+00 2u: 0.00E+00 ir: 9.56E-01 iu: 0.00E+00 rsn:   0
  1 2r: 2.62E-01 2x: 1.68E+08 2u: 1.86E+04 ir: 7.75E-02 iu: 1.11E+03 rsn:   0
  2 2r: 8.41E-03 2x: 1.68E+08 2u: 6.65E+02 ir: 5.90E-03 iu: 1.02E+02 rsn:   0
  3 2r: 6.96E-05 2x: 1.68E+08 2u: 2.11E+01 ir: 4.91E-05 iu: 9.29E+00 rsn:   0
  4 2r: 4.95E-09 2x: 1.68E+08 2u: 1.67E-01 ir: 3.49E-09 iu: 7.84E-02 rsn: itol_upd

 Step      9 Time=  1.36328E-04 Dt=  3.15064E-05 [y] conv_reason: 11
  newton =   4 [      41] linear =   176 [      1768] cuts =  0 [   0]
  --> SNES Linear/Non-Linear Iterations = 176 / 4
  --> SNES Residual: 0.495289E-08 0.485577E-13 0.349263E-08
  --> max change: dpmx=   1.0863E+03

== REACTIVE TRANSPORT ==========================================================
  0 2r: 3.80E+02 2x: 0.00E+00 2u: 0.00E+00 ir: 1.73E+02 iu: 0.00E+00 rsn:   0
  1 2r: 6.51E-05 2x: 4.25E-01 2u: 9.14E-02 ir: 2.34E-05 iu: 3.83E-02 rsn:   0
  2 2r: 6.17E-12 2x: 4.25E-01 2u: 1.73E-08 ir: 2.88E-12 iu: 7.48E-09 rsn: rtol

 Step      9 Time=  1.36328E-04 Dt=  3.15064E-05 [y] conv_reason: 3
  newton =   2 [      13] linear =     2 [        13] cuts =  0 [   0]
  --> SNES Linear/Non-Linear Iterations = 2 / 2
  --> SNES Residual: 0.616599E-11 0.616599E-11 0.288308E-11
  --> max change:  dcmx=   3.8327E-02  dc/dt=   3.8575E-05 [mol/s]

== RICHARDS FLOW ===============================================================
  0 2r: 5.16E+00 2x: 0.00E+00 2u: 0.00E+00 ir: 9.21E-01 iu: 0.00E+00 rsn:   0
  1 2r: 4.05E-01 2x: 1.68E+08 2u: 3.35E+04 ir: 1.13E-01 iu: 1.87E+03 rsn:   0
  2 2r: 1.18E-02 2x: 1.68E+08 2u: 1.73E+03 ir: 8.10E-03 iu: 2.80E+02 rsn:   0
  3 2r: 3.58E-06 2x: 1.68E+08 2u: 5.92E+01 ir: 2.22E-06 iu: 2.29E+01 rsn:   0
  4 2r: 5.93E-11 2x: 1.68E+08 2u: 4.13E-02 ir: 2.26E-11 iu: 3.16E-03 rsn: itol_upd

 Step     10 Time=  1.99341E-04 Dt=  6.30128E-05 [y] conv_reason: 11
  newton =   4 [      45] linear =   203 [      1971] cuts =  0 [   0]
  --> SNES Linear/Non-Linear Iterations = 203 / 4
  --> SNES Residual: 0.592666E-10 0.581045E-15 0.225828E-10
  --> max change: dpmx=   1.8112E+03

== REACTIVE TRANSPORT ==========================================================
  0 2r: 3.65E+02 2x: 0.00E+00 2u: 0.00E+00 ir: 1.65E+02 iu: 0.00E+00 rsn:   0
  1 2r: 4.53E-04 2x: 5.94E-01 2u: 1.70E-01 ir: 1.66E-04 iu: 7.01E-02 rsn:   0
  2 2r: 2.98E-10 2x: 5.94E-01 2u: 2.40E-07 ir: 1.39E-10 iu: 1.06E-07 rsn: rtol

 Step     10 Time=  1.99341E-04 Dt=  6.30128E-05 [y] conv_reason: 3
  newton =   2 [      15] linear =     2 [        15] cuts =  0 [   0]
  --> SNES Linear/Non-Linear Iterations = 2 / 2
  --> SNES Residual: 0.298462E-09 0.298462E-09 0.138735E-09
  --> max change:  dcmx=   7.0116E-02  dc/dt=   3.5284E-05 [mol/s]

== RICHARDS FLOW ===============================================================
  0 2r: 4.99E+00 2x: 0.00E+00 2u: 0.00E+00 ir: 8.64E-01 iu: 0.00E+00 rsn:   0
  1 2r: 5.61E-01 2x: 1.68E+08 2u: 5.90E+04 ir: 1.95E-01 iu: 2.85E+03 rsn:   0
  2 2r: 5.14E-02 2x: 1.68E+08 2u: 3.94E+03 ir: 3.45E-02 iu: 7.35E+02 rsn:   0
  3 2r: 1.50E-04 2x: 1.68E+08 2u: 2.74E+02 ir: 1.05E-04 iu: 9.79E+01 rsn:   0
  4 2r: 1.12E-08 2x: 1.68E+08 2u: 7.55E-01 ir: 7.86E-09 iu: 2.45E-01 rsn: itol_upd

 Step     11 Time=  3.25366E-04 Dt=  1.26026E-04 [y] conv_reason: 11
  newton =   4 [      49] linear =   187 [      2158] cuts =  0 [   0]
  --> SNES Linear/Non-Linear Iterations = 187 / 4
  --> SNES Residual: 0.112072E-07 0.109874E-12 0.786058E-08
  --> max change: dpmx=   2.7296E+03

== REACTIVE TRANSPORT ==========================================================
  0 2r: 3.38E+02 2x: 0.00E+00 2u: 0.00E+00 ir: 1.51E+02 iu: 0.00E+00 rsn:   0
  1 2r: 3.38E-10 2x: 8.91E-01 2u: 2.99E-01 ir: 1.88E-10 iu: 1.18E-01 rsn: rtol

 Step     11 Time=  3.25366E-04 Dt=  1.26026E-04 [y] conv_reason: 3
  newton =   1 [      16] linear =     2 [        17] cuts =  0 [   0]
  --> SNES Linear/Non-Linear Iterations = 2 / 1
  --> SNES Residual: 0.337694E-09 0.337694E-09 0.187679E-09
  --> max change:  dcmx=   1.1819E-01  dc/dt=   2.9738E-05 [mol/s]

== RICHARDS FLOW ===============================================================
  0 2r: 4.73E+00 2x: 0.00E+00 2u: 0.00E+00 ir: 7.77E-01 iu: 0.00E+00 rsn:   0
  1 2r: 6.54E-01 2x: 1.68E+08 2u: 1.01E+05 ir: 2.01E-01 iu: 3.89E+03 rsn:   0
  2 2r: 2.50E-02 2x: 1.68E+08 2u: 6.75E+03 ir: 1.63E-02 iu: 7.68E+02 rsn:   0
  3 2r: 2.05E-05 2x: 1.68E+08 2u: 2.53E+02 ir: 1.07E-05 iu: 5.15E+01 rsn:   0
  4 2r: 4.99E-10 2x: 1.68E+08 2u: 3.56E-01 ir: 2.29E-10 iu: 3.00E-02 rsn: itol_upd

 Step     12 Time=  5.77418E-04 Dt=  2.52051E-04 [y] conv_reason: 11
  newton =   4 [      53] linear =   196 [      2354] cuts =  0 [   0]
  --> SNES Linear/Non-Linear Iterations = 196 / 4
  --> SNES Residual: 0.498502E-09 0.488728E-14 0.228885E-09
  --> max change: dpmx=   3.6730E+03

== REACTIVE TRANSPORT ==========================================================
  0 2r: 2.95E+02 2x: 0.00E+00 2u: 0.00E+00 ir: 1.27E+02 iu: 0.00E+00 rsn:   0
  1 2r: 2.18E-08 2x: 1.36E+00 2u: 4.87E-01 ir: 1.16E-08 iu: 1.72E-01 rsn: rtol

 Step     12 Time=  5.77418E-04 Dt=  2.52051E-04 [y] conv_reason: 3
  newton =   1 [      17] linear =     2 [        19] cuts =  0 [   0]
  --> SNES Linear/Non-Linear Iterations = 2 / 1
  --> SNES Residual: 0.218164E-07 0.218164E-07 0.116347E-07
  --> max change:  dcmx=   1.7216E-01  dc/dt=   2.1658E-05 [mol/s]

== RICHARDS FLOW ===============================================================
  0 2r: 4.39E+00 2x: 0.00E+00 2u: 0.00E+00 ir: 6.55E-01 iu: 0.00E+00 rsn:   0
  1 2r: 7.36E-01 2x: 1.68E+08 2u: 1.60E+05 ir: 2.28E-01 iu: 4.67E+03 rsn:   0
  2 2r: 1.37E-02 2x: 1.68E+08 2u: 1.18E+04 ir: 5.80E-03 iu: 1.22E+03 rsn:   0
  3 2r: 4.49E-05 2x: 1.68E+08 2u: 3.94E+02 ir: 2.55E-05 iu: 2.92E+01 rsn:   0
  4 2r: 1.07E-09 2x: 1.68E+08 2u: 9.40E-01 ir: 4.10E-10 iu: 3.19E-01 rsn: itol_upd

 Step     13 Time=  1.08152E-03 Dt=  5.04103E-04 [y] conv_reason: 11
  newton =   4 [      57] linear =   195 [      2549] cuts =  0 [   0]
  --> SNES Linear/Non-Linear Iterations = 195 / 4
  --> SNES Residual: 0.107358E-08 0.105252E-13 0.410475E-09
  --> max change: dpmx=   4.3917E+03

== REACTIVE TRANSPORT ==========================================================
  0 2r: 2.36E+02 2x: 0.00E+00 2u: 0.00E+00 ir: 9.27E+01 iu: 0.00E+00 rsn:   0
  1 2r: 8.59E-07 2x: 2.05E+00 2u: 7.46E-01 ir: 4.21E-07 iu: 2.04E-01 rsn: rtol

 Step     13 Time=  1.08152E-03 Dt=  5.04103E-04 [y] conv_reason: 3
  newton =   1 [      18] linear =     2 [        21] cuts =  0 [   0]
  --> SNES Linear/Non-Linear Iterations = 2 / 1
  --> SNES Residual: 0.858908E-06 0.858908E-06 0.420538E-06
  --> max change:  dcmx=   2.0447E-01  dc/dt=   1.2862E-05 [mol/s]

== RICHARDS FLOW ===============================================================
  0 2r: 3.93E+00 2x: 0.00E+00 2u: 0.00E+00 ir: 5.01E-01 iu: 0.00E+00 rsn:   0
  1 2r: 7.01E-01 2x: 1.68E+08 2u: 2.46E+05 ir: 1.88E-01 iu: 5.22E+03 rsn:   0
  2 2r: 2.32E-02 2x: 1.68E+08 2u: 1.65E+04 ir: 1.07E-02 iu: 1.20E+03 rsn:   0
  3 2r: 2.39E-05 2x: 1.68E+08 2u: 6.75E+02 ir: 6.80E-06 iu: 4.33E+01 rsn:   0
  4 2r: 1.26E-09 2x: 1.68E+08 2u: 1.19E+00 ir: 5.96E-10 iu: 2.93E-02 rsn: itol_upd

 Step     14 Time=  2.08973E-03 Dt=  1.00821E-03 [y] conv_reason: 11
  newton =   4 [      61] linear =   210 [      2759] cuts =  0 [   0]
  --> SNES Linear/Non-Linear Iterations = 210 / 4
  --> SNES Residual: 0.126378E-08 0.123900E-13 0.596119E-09
  --> max change: dpmx=   5.1128E+03

== REACTIVE TRANSPORT ==========================================================
  0 2r: 1.79E+02 2x: 0.00E+00 2u: 0.00E+00 ir: 5.31E+01 iu: 0.00E+00 rsn:   0
  1 2r: 1.29E-05 2x: 3.01E+00 2u: 1.15E+00 ir: 5.72E-06 iu: 2.61E-01 rsn:   0
  2 2r: 5.28E-12 2x: 3.01E+00 2u: 1.24E-07 ir: 1.40E-12 iu: 5.57E-08 rsn: rtol

 Step     14 Time=  2.08973E-03 Dt=  1.00821E-03 [y] conv_reason: 3
  newton =   2 [      20] linear =     3 [        24] cuts =  0 [   0]
  --> SNES Linear/Non-Linear Iterations = 3 / 2
  --> SNES Residual: 0.528272E-11 0.528272E-11 0.140066E-11
  --> max change:  dcmx=   2.6114E-01  dc/dt=   8.2133E-06 [mol/s]

== RICHARDS FLOW ===============================================================
  0 2r: 3.38E+00 2x: 0.00E+00 2u: 0.00E+00 ir: 3.36E-01 iu: 0.00E+00 rsn:   0
  1 2r: 7.53E-01 2x: 1.68E+08 2u: 3.65E+05 ir: 1.44E-01 iu: 1.12E+04 rsn:   0
  2 2r: 4.91E+00 2x: 1.68E+08 2u: 2.49E+04 ir: 1.60E+00 iu: 3.81E+03 rsn:   0
  3 2r: 7.95E-03 2x: 1.68E+08 2u: 1.07E+04 ir: 3.62E-03 iu: 4.79E+03 rsn:   0
  4 2r: 1.63E-06 2x: 1.68E+08 2u: 2.47E+02 ir: 1.05E-06 iu: 7.57E+01 rsn:   0
  5 2r: 2.34E-10 2x: 1.68E+08 2u: 2.88E-01 ir: 8.84E-11 iu: 3.29E-02 rsn: itol_upd

 Step     15 Time=  4.10614E-03 Dt=  2.01641E-03 [y] conv_reason: 11
  newton =   5 [      66] linear =   243 [      3002] cuts =  0 [   0]
  --> SNES Linear/Non-Linear Iterations = 243 / 5
  --> SNES Residual: 0.234491E-09 0.229893E-14 0.883933E-10
  --> max change: dpmx=   1.0470E+04

== REACTIVE TRANSPORT ==========================================================
  0 2r: 1.37E+02 2x: 0.00E+00 2u: 0.00E+00 ir: 2.57E+01 iu: 0.00E+00 rsn:   0
  1 2r: 6.22E-05 2x: 4.42E+00 2u: 1.77E+00 ir: 2.26E-05 iu: 2.92E-01 rsn:   0
  2 2r: 4.98E-10 2x: 4.42E+00 2u: 1.10E-06 ir: 1.58E-10 iu: 4.09E-07 rsn: rtol

 Step     15 Time=  4.10614E-03 Dt=  2.01641E-03 [y] conv_reason: 3
  newton =   2 [      22] linear =     3 [        27] cuts =  0 [   0]
  --> SNES Linear/Non-Linear Iterations = 3 / 2
  --> SNES Residual: 0.498099E-09 0.498099E-09 0.158354E-09
  --> max change:  dcmx=   2.9211E-01  dc/dt=   4.5938E-06 [mol/s]

== RICHARDS FLOW ===============================================================
  0 2r: 2.79E+00 2x: 0.00E+00 2u: 0.00E+00 ir: 1.97E-01 iu: 0.00E+00 rsn:   0
  1 2r: 2.00E-01 2x: 1.68E+08 2u: 1.12E+05 ir: 5.63E-02 iu: 3.24E+03 rsn:   0
  2 2r: 7.12E-03 2x: 1.68E+08 2u: 3.45E+03 ir: 4.20E-03 iu: 3.42E+02 rsn:   0
  3 2r: 1.02E-06 2x: 1.68E+08 2u: 4.95E+01 ir: 6.03E-07 iu: 1.32E+01 rsn:   0
  4 2r: 1.98E-11 2x: 1.68E+08 2u: 3.75E-02 ir: 6.72E-12 iu: 2.27E-03 rsn: itol_upd

 Step     16 Time=  4.77155E-03 Dt=  6.65415E-04 [y] conv_reason: 11
  newton =   4 [      70] linear =   202 [      3204] cuts =  0 [   0]
  --> SNES Linear/Non-Linear Iterations = 202 / 4
  --> SNES Residual: 0.198294E-10 0.194406E-15 0.671996E-11
  --> max change: dpmx=   3.0991E+03

== REACTIVE TRANSPORT ==========================================================
  0 2r: 1.04E+02 2x: 0.00E+00 2u: 0.00E+00 ir: 1.72E+01 iu: 0.00E+00 rsn:   0
  1 2r: 1.27E-07 2x: 4.88E+00 2u: 5.51E-01 ir: 5.66E-08 iu: 8.80E-02 rsn: rtol

 Step     16 Time=  4.77155E-03 Dt=  6.65415E-04 [y] conv_reason: 3
  newton =   1 [      23] linear =     2 [        29] cuts =  0 [   0]
  --> SNES Linear/Non-Linear Iterations = 2 / 1
  --> SNES Residual: 0.127050E-06 0.127050E-06 0.565702E-07
  --> max change:  dcmx=   8.7976E-02  dc/dt=   4.1924E-06 [mol/s]

== RICHARDS FLOW ===============================================================
  0 2r: 2.60E+00 2x: 0.00E+00 2u: 0.00E+00 ir: 1.68E-01 iu: 0.00E+00 rsn:   0
  1 2r: 2.55E-01 2x: 1.68E+08 2u: 1.94E+05 ir: 5.55E-02 iu: 5.85E+03 rsn:   0
  2 2r: 8.58E-03 2x: 1.68E+08 2u: 6.35E+03 ir: 4.38E-03 iu: 5.45E+02 rsn:   0
  3 2r: 1.73E-06 2x: 1.68E+08 2u: 1.31E+02 ir: 7.96E-07 iu: 2.09E+01 rsn:   0
  4 2r: 6.64E-11 2x: 1.68E+08 2u: 6.62E-02 ir: 2.29E-11 iu: 1.91E-03 rsn: itol_upd

 Step     17 Time=  6.10238E-03 Dt=  1.33083E-03 [y] conv_reason: 11
  newton =   4 [      74] linear =   212 [      3416] cuts =  0 [   0]
  --> SNES Linear/Non-Linear Iterations = 212 / 4
  --> SNES Residual: 0.664346E-10 0.651320E-15 0.229097E-10
  --> max change: dpmx=   5.2988E+03

== REACTIVE TRANSPORT ==========================================================
  0 2r: 9.74E+01 2x: 0.00E+00 2u: 0.00E+00 ir: 1.45E+01 iu: 0.00E+00 rsn:   0
  1 2r: 1.29E-06 2x: 5.67E+00 2u: 9.96E-01 ir: 4.64E-07 iu: 1.36E-01 rsn:   0
  2 2r: 2.68E-12 2x: 5.67E+00 2u: 1.59E-08 ir: 8.92E-13 iu: 5.83E-09 rsn: rtol

 Step     17 Time=  6.10238E-03 Dt=  1.33083E-03 [y] conv_reason: 3
  newton =   2 [      25] linear =     3 [        32] cuts =  0 [   0]
  --> SNES Linear/Non-Linear Iterations = 3 / 2
  --> SNES Residual: 0.268331E-11 0.268331E-11 0.891731E-12
  --> max change:  dcmx=   1.3574E-01  dc/dt=   3.2342E-06 [mol/s]

== RICHARDS FLOW ===============================================================
  0 2r: 2.38E+00 2x: 0.00E+00 2u: 0.00E+00 ir: 1.47E-01 iu: 0.00E+00 rsn:   0
  1 2r: 5.19E-01 2x: 1.68E+08 2u: 3.24E+05 ir: 7.28E-02 iu: 8.36E+03 rsn:   0
  2 2r: 6.80E-03 2x: 1.68E+08 2u: 1.30E+04 ir: 2.40E-03 iu: 1.27E+03 rsn:   0
  3 2r: 1.93E-06 2x: 1.68E+08 2u: 4.14E+02 ir: 3.20E-07 iu: 8.96E+01 rsn:   0
  4 2r: 9.51E-11 2x: 1.68E+08 2u: 2.70E-01 ir: 2.52E-11 iu: 3.38E-02 rsn: itol_upd

 Step     18 Time=  8.76404E-03 Dt=  2.66166E-03 [y] conv_reason: 11
  newton =   4 [      78] linear =   195 [      3611] cuts =  0 [   0]
  --> SNES Linear/Non-Linear Iterations = 195 / 4
  --> SNES Residual: 0.950820E-10 0.932176E-15 0.252243E-10
  --> max change: dpmx=   7.2345E+03

== REACTIVE TRANSPORT ==========================================================
  0 2r: 8.72E+01 2x: 0.00E+00 2u: 0.00E+00 ir: 1.04E+01 iu: 0.00E+00 rsn:   0
  1 2r: 8.58E-06 2x: 6.99E+00 2u: 1.72E+00 ir: 2.19E-06 iu: 2.01E-01 rsn:   0
  2 2r: 8.54E-11 2x: 6.99E+00 2u: 1.99E-07 ir: 2.44E-11 iu: 5.06E-08 rsn: rtol

 Step     18 Time=  8.76404E-03 Dt=  2.66166E-03 [y] conv_reason: 3
  newton =   2 [      27] linear =     3 [        35] cuts =  0 [   0]
  --> SNES Linear/Non-Linear Iterations = 3 / 2
  --> SNES Residual: 0.853719E-10 0.853719E-10 0.244411E-10
  --> max change:  dcmx=   2.0115E-01  dc/dt=   2.3964E-06 [mol/s]

== RICHARDS FLOW ===============================================================
  0 2r: 2.14E+00 2x: 0.00E+00 2u: 0.00E+00 ir: 1.12E-01 iu: 0.00E+00 rsn:   0
  1 2r: 1.05E+00 2x: 1.68E+08 2u: 5.09E+05 ir: 1.31E-01 iu: 9.94E+03 rsn:   0
  2 2r: 6.96E+00 2x: 1.68E+08 2u: 3.29E+04 ir: 1.07E+00 iu: 6.93E+03 rsn:   0
  3 2r: 7.27E-02 2x: 1.68E+08 2u: 2.03E+04 ir: 2.59E-02 iu: 5.20E+03 rsn:   0
  4 2r: 1.23E-04 2x: 1.68E+08 2u: 4.48E+02 ir: 4.65E-05 iu: 8.50E+01 rsn:   0
  5 2r: 8.38E-10 2x: 1.68E+08 2u: 1.20E+00 ir: 3.54E-10 iu: 1.60E-01 rsn: itol_upd

 Step     19 Time=  1.40874E-02 Dt=  5.32332E-03 [y] conv_reason: 11
  newton =   5 [      83] linear =   252 [      3863] cuts =  0 [   0]
  --> SNES Linear/Non-Linear Iterations = 252 / 5
  --> SNES Residual: 0.838443E-09 0.822003E-14 0.353788E-09
  --> max change: dpmx=   8.3741E+03

== REACTIVE TRANSPORT ==========================================================
  0 2r: 7.45E+01 2x: 0.00E+00 2u: 0.00E+00 ir: 8.68E+00 iu: 0.00E+00 rsn:   0
  1 2r: 3.18E-05 2x: 9.09E+00 2u: 2.83E+00 ir: 7.00E-06 iu: 2.50E-01 rsn:   0
  2 2r: 2.28E-13 2x: 9.09E+00 2u: 1.32E-06 ir: 5.68E-14 iu: 2.94E-07 rsn: rtol

 Step     19 Time=  1.40874E-02 Dt=  5.32332E-03 [y] conv_reason: 3
  newton =   2 [      29] linear =     4 [        39] cuts =  0 [   0]
  --> SNES Linear/Non-Linear Iterations = 4 / 2
  --> SNES Residual: 0.228273E-12 0.228273E-12 0.568434E-13
  --> max change:  dcmx=   2.4963E-01  dc/dt=   1.4870E-06 [mol/s]

== RICHARDS FLOW ===============================================================
  0 2r: 2.13E+00 2x: 0.00E+00 2u: 0.00E+00 ir: 7.62E-02 iu: 0.00E+00 rsn:   0
  1 2r: 1.33E-01 2x: 1.68E+08 2u: 1.68E+05 ir: 2.85E-02 iu: 2.27E+03 rsn:   0
  2 2r: 1.83E-03 2x: 1.68E+08 2u: 3.21E+03 ir: 9.40E-04 iu: 1.36E+02 rsn:   0
  3 2r: 3.93E-08 2x: 1.68E+08 2u: 2.01E+01 ir: 1.27E-08 iu: 3.31E+00 rsn:   0
  4 2r: 9.85E-12 2x: 1.68E+08 2u: 9.81E-03 ir: 2.39E-12 iu: 7.78E-05 rsn: itol_upd

 Step     20 Time=  1.58441E-02 Dt=  1.75670E-03 [y] conv_reason: 11
  newton =   4 [      87] linear =   206 [      4069] cuts =  0 [   0]
  --> SNES Linear/Non-Linear Iterations = 206 / 4
  --> SNES Residual: 0.984980E-11 0.965666E-16 0.239453E-11
  --> max change: dpmx=   2.1881E+03

== REACTIVE TRANSPORT ==========================================================
  0 2r: 6.07E+01 2x: 0.00E+00 2u: 0.00E+00 ir: 5.46E+00 iu: 0.00E+00 rsn:   0
  1 2r: 1.07E-07 2x: 9.79E+00 2u: 8.92E-01 ir: 3.07E-08 iu: 7.74E-02 rsn: rtol

 Step     20 Time=  1.58441E-02 Dt=  1.75670E-03 [y] conv_reason: 3
  newton =   1 [      30] linear =     2 [        41] cuts =  0 [   0]
  --> SNES Linear/Non-Linear Iterations = 2 / 1
  --> SNES Residual: 0.107366E-06 0.107366E-06 0.306834E-07
  --> max change:  dcmx=   7.7410E-02  dc/dt=   1.3973E-06 [mol/s]

== RICHARDS FLOW ===============================================================
  0 2r: 1.61E+00 2x: 0.00E+00 2u: 0.00E+00 ir: 7.11E-02 iu: 0.00E+00 rsn:   0
  1 2r: 4.74E-01 2x: 1.68E+08 2u: 2.77E+05 ir: 6.93E-02 iu: 3.65E+03 rsn:   0
  2 2r: 2.89E-03 2x: 1.68E+08 2u: 6.40E+03 ir: 1.49E-03 iu: 2.45E+02 rsn:   0
  3 2r: 2.11E-07 2x: 1.68E+08 2u: 6.74E+01 ir: 8.83E-08 iu: 9.86E+00 rsn:   0
  4 2r: 7.97E-11 2x: 1.68E+08 2u: 2.71E-02 ir: 3.80E-11 iu: 4.07E-04 rsn: itol_upd

 Step     21 Time=  1.93575E-02 Dt=  3.51339E-03 [y] conv_reason: 11
  newton =   4 [      91] linear =   211 [      4280] cuts =  0 [   0]
  --> SNES Linear/Non-Linear Iterations = 211 / 4
  --> SNES Residual: 0.796884E-10 0.781258E-15 0.380105E-10
  --> max change: dpmx=   3.4227E+03

== REACTIVE TRANSPORT ==========================================================
  0 2r: 5.76E+01 2x: 0.00E+00 2u: 0.00E+00 ir: 4.95E+00 iu: 0.00E+00 rsn:   0
  1 2r: 1.06E-06 2x: 1.10E+01 2u: 1.65E+00 ir: 2.82E-07 iu: 1.27E-01 rsn:   0
  2 2r: 1.35E-13 2x: 1.10E+01 2u: 3.13E-08 ir: 8.53E-14 iu: 8.24E-09 rsn: rtol

 Step     21 Time=  1.93575E-02 Dt=  3.51339E-03 [y] conv_reason: 3
  newton =   2 [      32] linear =     4 [        45] cuts =  0 [   0]
  --> SNES Linear/Non-Linear Iterations = 4 / 2
  --> SNES Residual: 0.135422E-12 0.135422E-12 0.852651E-13
  --> max change:  dcmx=   1.2724E-01  dc/dt=   1.1484E-06 [mol/s]

== RICHARDS FLOW ===============================================================
  0 2r: 1.64E+00 2x: 0.00E+00 2u: 0.00E+00 ir: 5.81E-02 iu: 0.00E+00 rsn:   0
  1 2r: 8.10E-01 2x: 1.68E+08 2u: 4.59E+05 ir: 1.19E-01 iu: 5.26E+03 rsn:   0
  2 2r: 2.75E-03 2x: 1.68E+08 2u: 1.37E+04 ir: 4.13E-04 iu: 4.87E+02 rsn:   0
  3 2r: 7.03E-07 2x: 1.68E+08 2u: 3.84E+02 ir: 1.74E-07 iu: 1.17E+02 rsn:   0
  4 2r: 4.57E-10 2x: 1.68E+08 2u: 5.08E-01 ir: 1.68E-10 iu: 4.72E-02 rsn: itol_upd

 Step     22 Time=  2.63842E-02 Dt=  7.02679E-03 [y] conv_reason: 11
  newton =   4 [      95] linear =   233 [      4513] cuts =  0 [   0]
  --> SNES Linear/Non-Linear Iterations = 233 / 4
  --> SNES Residual: 0.457003E-09 0.448042E-14 0.167764E-09
  --> max change: dpmx=   4.8071E+03

== REACTIVE TRANSPORT ==========================================================
  0 2r: 5.27E+01 2x: 0.00E+00 2u: 0.00E+00 ir: 4.39E+00 iu: 0.00E+00 rsn:   0
  1 2r: 7.16E-06 2x: 1.31E+01 2u: 2.89E+00 ir: 1.13E-06 iu: 1.84E-01 rsn:   0
  2 2r: 1.16E-13 2x: 1.31E+01 2u: 4.26E-07 ir: 5.68E-14 iu: 6.58E-08 rsn: rtol

 Step     22 Time=  2.63842E-02 Dt=  7.02679E-03 [y] conv_reason: 3
  newton =   2 [      34] linear =     4 [        49] cuts =  0 [   0]
  --> SNES Linear/Non-Linear Iterations = 4 / 2
  --> SNES Residual: 0.115730E-12 0.115730E-12 0.568434E-13
  --> max change:  dcmx=   1.8449E-01  dc/dt=   8.3254E-07 [mol/s]

== RICHARDS FLOW ===============================================================
  0 2r: 2.12E+00 2x: 0.00E+00 2u: 0.00E+00 ir: 1.01E-01 iu: 0.00E+00 rsn:   0
  1 2r: 1.05E+00 2x: 1.68E+08 2u: 6.97E+05 ir: 1.67E-01 iu: 8.93E+03 rsn:   0
  2 2r: 6.37E+00 2x: 1.68E+08 2u: 3.81E+04 ir: 7.38E-01 iu: 2.50E+03 rsn:   0
  3 2r: 7.13E-02 2x: 1.68E+08 2u: 2.34E+04 ir: 8.67E-03 iu: 2.44E+03 rsn:   0
  4 2r: 5.10E-05 2x: 1.68E+08 2u: 3.29E+02 ir: 6.48E-06 iu: 4.00E+01 rsn:   0
  5 2r: 6.82E-10 2x: 1.68E+08 2u: 7.04E-01 ir: 2.77E-10 iu: 3.53E-01 rsn: itol_upd

 Step     23 Time=  4.04378E-02 Dt=  1.40536E-02 [y] conv_reason: 11
  newton =   5 [     100] linear =   248 [      4761] cuts =  0 [   0]
  --> SNES Linear/Non-Linear Iterations = 248 / 5
  --> SNES Residual: 0.682093E-09 0.668719E-14 0.277440E-09
  --> max change: dpmx=   8.4325E+03

== REACTIVE TRANSPORT ==========================================================
  0 2r: 4.59E+01 2x: 0.00E+00 2u: 0.00E+00 ir: 3.23E+00 iu: 0.00E+00 rsn:   0
  1 2r: 9.99E-05 2x: 1.64E+01 2u: 4.81E+00 ir: 1.54E-05 iu: 2.46E-01 rsn:   0
  2 2r: 3.08E-11 2x: 1.64E+01 2u: 1.15E-05 ir: 5.39E-12 iu: 1.57E-06 rsn: rtol

 Step     23 Time=  4.04378E-02 Dt=  1.40536E-02 [y] conv_reason: 3
  newton =   2 [      36] linear =     4 [        53] cuts =  0 [   0]
  --> SNES Linear/Non-Linear Iterations = 4 / 2
  --> SNES Residual: 0.308026E-10 0.308026E-10 0.539408E-11
  --> max change:  dcmx=   2.4587E-01  dc/dt=   5.5477E-07 [mol/s]

== RICHARDS FLOW ===============================================================
  0 2r: 3.68E+00 2x: 0.00E+00 2u: 0.00E+00 ir: 2.01E-01 iu: 0.00E+00 rsn:   0
  1 2r: 8.21E-02 2x: 1.68E+08 2u: 2.66E+05 ir: 5.44E-02 iu: 2.62E+03 rsn:   0
  2 2r: 1.50E-03 2x: 1.68E+08 2u: 3.57E+03 ir: 1.04E-03 iu: 1.28E+02 rsn:   0
  3 2r: 3.98E-07 2x: 1.68E+08 2u: 8.54E+00 ir: 2.84E-07 iu: 3.92E+00 rsn:   0
  4 2r: 2.35E-11 2x: 1.68E+08 2u: 6.98E-03 ir: 1.06E-11 iu: 4.36E-04 rsn: itol_upd

 Step     24 Time=  4.50755E-02 Dt=  4.63768E-03 [y] conv_reason: 11
  newton =   4 [     104] linear =   205 [      4966] cuts =  0 [   0]
  --> SNES Linear/Non-Linear Iterations = 205 / 4
  --> SNES Residual: 0.235288E-10 0.230674E-15 0.106493E-10
  --> max change: dpmx=   2.5762E+03

== REACTIVE TRANSPORT ==========================================================
  0 2r: 3.79E+01 2x: 0.00E+00 2u: 0.00E+00 ir: 2.29E+00 iu: 0.00E+00 rsn:   0
  1 2r: 1.28E-07 2x: 1.75E+01 2u: 1.52E+00 ir: 2.14E-08 iu: 7.37E-02 rsn: rtol

 Step     24 Time=  4.50755E-02 Dt=  4.63768E-03 [y] conv_reason: 3
  newton =   1 [      37] linear =     2 [        55] cuts =  0 [   0]
  --> SNES Linear/Non-Linear Iterations = 2 / 1
  --> SNES Residual: 0.128119E-06 0.128119E-06 0.213645E-07
  --> max change:  dcmx=   7.3692E-02  dc/dt=   5.0386E-07 [mol/s]

== RICHARDS FLOW ===============================================================
  0 2r: 1.41E+00 2x: 0.00E+00 2u: 0.00E+00 ir: 6.64E-02 iu: 0.00E+00 rsn:   0
  1 2r: 3.24E-01 2x: 1.68E+08 2u: 3.64E+05 ir: 9.35E-02 iu: 5.04E+03 rsn:   0
  2 2r: 9.69E-03 2x: 1.68E+08 2u: 8.72E+03 ir: 4.08E-03 iu: 3.58E+02 rsn:   0
  3 2r: 9.87E-06 2x: 1.68E+08 2u: 5.44E+02 ir: 5.05E-06 iu: 1.33E+02 rsn:   0
  4 2r: 8.84E-10 2x: 1.68E+08 2u: 8.25E-01 ir: 4.10E-10 iu: 2.17E-02 rsn: itol_upd

 Step     25 Time=  5.43509E-02 Dt=  9.27536E-03 [y] conv_reason: 11
  newton =   4 [     108] linear =   199 [      5165] cuts =  0 [   0]
  --> SNES Linear/Non-Linear Iterations = 199 / 4
  --> SNES Residual: 0.884330E-09 0.866990E-14 0.409633E-09
  --> max change: dpmx=   4.8614E+03

== REACTIVE TRANSPORT ==========================================================
  0 2r: 3.62E+01 2x: 0.00E+00 2u: 0.00E+00 ir: 2.09E+00 iu: 0.00E+00 rsn:   0
  1 2r: 3.80E-06 2x: 1.95E+01 2u: 2.82E+00 ir: 6.87E-07 iu: 1.26E-01 rsn:   0
  2 2r: 1.45E-13 2x: 1.95E+01 2u: 3.11E-07 ir: 8.53E-14 iu: 5.55E-08 rsn: rtol

 Step     25 Time=  5.43509E-02 Dt=  9.27536E-03 [y] conv_reason: 3
  newton =   2 [      39] linear =     4 [        59] cuts =  0 [   0]
  --> SNES Linear/Non-Linear Iterations = 4 / 2
  --> SNES Residual: 0.145192E-12 0.145192E-12 0.852651E-13
  --> max change:  dcmx=   1.2648E-01  dc/dt=   4.3239E-07 [mol/s]

== RICHARDS FLOW ===============================================================
  0 2r: 2.45E+00 2x: 0.00E+00 2u: 0.00E+00 ir: 1.33E-01 iu: 0.00E+00 rsn:   0
  1 2r: 1.42E-01 2x: 1.68E+08 2u: 5.78E+05 ir: 3.05E-02 iu: 9.28E+03 rsn:   0
  2 2r: 2.12E-03 2x: 1.68E+08 2u: 2.78E+04 ir: 5.51E-04 iu: 1.08E+03 rsn:   0
  3 2r: 4.69E-07 2x: 1.68E+08 2u: 2.65E+02 ir: 1.41E-07 iu: 1.64E+01 rsn:   0
  4 2r: 4.50E-10 2x: 1.68E+08 2u: 3.71E-01 ir: 1.57E-10 iu: 3.91E-03 rsn: itol_upd

 Step     26 Time=  7.29016E-02 Dt=  1.85507E-02 [y] conv_reason: 11
  newton =   4 [     112] linear =   231 [      5396] cuts =  0 [   0]
  --> SNES Linear/Non-Linear Iterations = 231 / 4
  --> SNES Residual: 0.450372E-09 0.441542E-14 0.157039E-09
  --> max change: dpmx=   8.6772E+03

== REACTIVE TRANSPORT ==========================================================
  0 2r: 3.34E+01 2x: 0.00E+00 2u: 0.00E+00 ir: 1.83E+00 iu: 0.00E+00 rsn:   0
  1 2r: 9.76E-05 2x: 2.28E+01 2u: 4.98E+00 ir: 1.45E-05 iu: 1.97E-01 rsn:   0
  2 2r: 3.64E-11 2x: 2.28E+01 2u: 1.45E-05 ir: 4.35E-12 iu: 2.00E-06 rsn: rtol

 Step     26 Time=  7.29016E-02 Dt=  1.85507E-02 [y] conv_reason: 3
  newton =   2 [      41] linear =     4 [        63] cuts =  0 [   0]
  --> SNES Linear/Non-Linear Iterations = 4 / 2
  --> SNES Residual: 0.363764E-10 0.363764E-10 0.435132E-11
  --> max change:  dcmx=   1.9656E-01  dc/dt=   3.3599E-07 [mol/s]

== RICHARDS FLOW ===============================================================
  0 2r: 4.76E+00 2x: 0.00E+00 2u: 0.00E+00 ir: 2.65E-01 iu: 0.00E+00 rsn:   0
  1 2r: 2.45E-01 2x: 1.68E+08 2u: 8.81E+05 ir: 7.69E-02 iu: 1.58E+04 rsn:   0
  2 2r: 1.69E-02 2x: 1.68E+08 2u: 7.38E+04 ir: 4.42E-03 iu: 1.81E+03 rsn:   0
  3 2r: 8.34E-04 2x: 1.68E+08 2u: 1.45E+03 ir: 3.70E-04 iu: 1.43E+02 rsn:   0
  4 2r: 2.35E-09 2x: 1.68E+08 2u: 2.60E+00 ir: 9.17E-10 iu: 1.14E+00 rsn: rtol

 Step     27 Time=  1.10003E-01 Dt=  3.71014E-02 [y] conv_reason: 3
  newton =   4 [     116] linear =   228 [      5624] cuts =  0 [   0]
  --> SNES Linear/Non-Linear Iterations = 228 / 4
  --> SNES Residual: 0.234975E-08 0.230368E-13 0.916565E-09
  --> max change: dpmx=   1.3917E+04

== REACTIVE TRANSPORT ==========================================================
  0 2r: 2.93E+01 2x: 0.00E+00 2u: 0.00E+00 ir: 1.44E+00 iu: 0.00E+00 rsn:   0
  1 2r: 6.47E-06 2x: 2.81E+01 2u: 8.29E+00 ir: 7.10E-07 iu: 2.69E-01 rsn:   0
  2 2r: 2.35E-11 2x: 2.81E+01 2u: 1.89E-06 ir: 3.07E-12 iu: 2.25E-07 rsn: rtol

 Step     27 Time=  1.10003E-01 Dt=  3.71014E-02 [y] conv_reason: 3
  newton =   2 [      43] linear =     5 [        68] cuts =  0 [   0]
  --> SNES Linear/Non-Linear Iterations = 5 / 2
  --> SNES Residual: 0.234563E-10 0.234563E-10 0.307214E-11
  --> max change:  dcmx=   2.6923E-01  dc/dt=   2.3010E-07 [mol/s]

== RICHARDS FLOW ===============================================================
  0 2r: 9.48E+00 2x: 0.00E+00 2u: 0.00E+00 ir: 5.31E-01 iu: 0.00E+00 rsn:   0
  1 2r: 3.82E-01 2x: 1.67E+08 2u: 1.31E+06 ir: 1.17E-01 iu: 2.25E+04 rsn:   0
  2 2r: 2.87E-02 2x: 1.67E+08 2u: 1.76E+05 ir: 1.02E-02 iu: 4.06E+03 rsn:   0
  3 2r: 1.45E-04 2x: 1.67E+08 2u: 1.02E+04 ir: 5.31E-05 iu: 2.76E+02 rsn:   0
  4 2r: 2.80E-08 2x: 1.67E+08 2u: 3.70E+01 ir: 6.65E-09 iu: 1.17E+00 rsn: rtol

 Step     28 Time=  1.84206E-01 Dt=  7.42029E-02 [y] conv_reason: 3
  newton =   4 [     120] linear =   213 [      5837] cuts =  0 [   0]
  --> SNES Linear/Non-Linear Iterations = 213 / 4
  --> SNES Residual: 0.279503E-07 0.274023E-12 0.665006E-08
  --> max change: dpmx=   1.8183E+04

== REACTIVE TRANSPORT ==========================================================
  0 2r: 2.43E+01 2x: 0.00E+00 2u: 0.00E+00 ir: 9.94E-01 iu: 0.00E+00 rsn:   0
  1 2r: 3.13E-06 2x: 3.65E+01 2u: 1.31E+01 ir: 3.33E-07 iu: 3.37E-01 rsn:   0
  2 2r: 5.29E-13 2x: 3.65E+01 2u: 1.63E-06 ir: 8.35E-14 iu: 1.74E-07 rsn: rtol

 Step     28 Time=  1.84206E-01 Dt=  7.42029E-02 [y] conv_reason: 3
  newton =   2 [      45] linear =     7 [        75] cuts =  0 [   0]
  --> SNES Linear/Non-Linear Iterations = 7 / 2
  --> SNES Residual: 0.528885E-12 0.528885E-12 0.834634E-13
  --> max change:  dcmx=   3.3669E-01  dc/dt=   1.4388E-07 [mol/s]

== RICHARDS FLOW ===============================================================
  0 2r: 1.90E+01 2x: 0.00E+00 2u: 0.00E+00 ir: 1.06E+00 iu: 0.00E+00 rsn:   0
  1 2r: 4.91E-01 2x: 1.67E+08 2u: 1.35E+06 ir: 1.26E-01 iu: 1.16E+04 rsn:   0
  2 2r: 3.45E-02 2x: 1.67E+08 2u: 6.50E+04 ir: 1.39E-02 iu: 1.49E+03 rsn:   0
  3 2r: 2.49E-04 2x: 1.67E+08 2u: 1.48E+03 ir: 1.02E-04 iu: 4.01E+01 rsn:   0
  4 2r: 1.58E-08 2x: 1.67E+08 2u: 6.26E+00 ir: 6.05E-09 iu: 3.13E-01 rsn: itol_upd

 Step     29 Time=  2.50000E-01 Dt=  6.57941E-02 [y] conv_reason: 11
  newton =   4 [     124] linear =   256 [      6093] cuts =  0 [   0]
  --> SNES Linear/Non-Linear Iterations = 256 / 4
  --> SNES Residual: 0.157931E-07 0.154834E-12 0.605213E-08
  --> max change: dpmx=   1.0081E+04

== REACTIVE TRANSPORT ==========================================================
  0 2r: 1.90E+01 2x: 0.00E+00 2u: 0.00E+00 ir: 6.23E-01 iu: 0.00E+00 rsn:   0
  1 2r: 6.03E-05 2x: 4.33E+01 2u: 1.02E+01 ir: 6.08E-06 iu: 2.29E-01 rsn:   0
  2 2r: 1.62E-11 2x: 4.33E+01 2u: 2.76E-05 ir: 1.93E-12 iu: 2.75E-06 rsn: rtol

 Step     29 Time=  2.50000E-01 Dt=  6.57941E-02 [y] conv_reason: 3
  newton =   2 [      47] linear =     6 [        81] cuts =  0 [   0]
  --> SNES Linear/Non-Linear Iterations = 6 / 2
  --> SNES Residual: 0.161531E-10 0.161531E-10 0.193139E-11
  --> max change:  dcmx=   2.2929E-01  dc/dt=   1.1051E-07 [mol/s]

 --> appending to hdf5 output file: 3D_solute.h5
      0.19 Seconds to write HDF5 file.
 --> write tecplot output file: 3D_solute-001.tec
 --> write tecplot velocity output file: 3D_solute-vel-001.tec
      4.72 Seconds to write to Tecplot file(s)

== RICHARDS FLOW ===============================================================
  0 2r: 1.65E+01 2x: 0.00E+00 2u: 0.00E+00 ir: 9.41E-01 iu: 0.00E+00 rsn:   0
  1 2r: 1.04E+00 2x: 1.66E+08 2u: 1.46E+06 ir: 1.06E-01 iu: 1.41E+04 rsn:   0
  2 2r: 2.04E-01 2x: 1.66E+08 2u: 8.07E+04 ir: 2.15E-02 iu: 1.49E+03 rsn:   0
  3 2r: 8.09E-03 2x: 1.66E+08 2u: 2.12E+03 ir: 8.83E-04 iu: 1.78E+02 rsn:   0
  4 2r: 1.33E-05 2x: 1.66E+08 2u: 5.14E+01 ir: 1.64E-06 iu: 7.50E+00 rsn:   0
  5 2r: 4.28E-10 2x: 1.66E+08 2u: 4.69E-01 ir: 1.47E-10 iu: 1.43E-02 rsn: itol_upd

 Step     30 Time=  3.50000E-01 Dt=  1.00000E-01 [y] conv_reason: 11
  newton =   5 [     129] linear =   370 [      6463] cuts =  0 [   0]
  --> SNES Linear/Non-Linear Iterations = 370 / 5
  --> SNES Residual: 0.427730E-09 0.419343E-14 0.146597E-09
  --> max change: dpmx=   1.2611E+04

== REACTIVE TRANSPORT ==========================================================
  0 2r: 1.67E+01 2x: 0.00E+00 2u: 0.00E+00 ir: 4.81E-01 iu: 0.00E+00 rsn:   0
  1 2r: 7.50E-06 2x: 5.20E+01 2u: 1.34E+01 ir: 5.77E-07 iu: 2.60E-01 rsn:   0
  2 2r: 8.56E-12 2x: 5.20E+01 2u: 4.85E-06 ir: 1.56E-12 iu: 4.22E-07 rsn: rtol

 Step     30 Time=  3.50000E-01 Dt=  1.00000E-01 [y] conv_reason: 3
  newton =   2 [      49] linear =     7 [        88] cuts =  0 [   0]
  --> SNES Linear/Non-Linear Iterations = 7 / 2
  --> SNES Residual: 0.855716E-11 0.855716E-11 0.155906E-11
  --> max change:  dcmx=   2.5966E-01  dc/dt=   8.2338E-08 [mol/s]

== RICHARDS FLOW ===============================================================
  0 2r: 1.70E+01 2x: 0.00E+00 2u: 0.00E+00 ir: 9.54E-01 iu: 0.00E+00 rsn:   0
  1 2r: 1.28E+00 2x: 1.66E+08 2u: 6.43E+05 ir: 8.55E-02 iu: 7.61E+03 rsn:   0
  2 2r: 2.24E-02 2x: 1.66E+08 2u: 9.48E+04 ir: 9.62E-03 iu: 1.03E+03 rsn:   0
  3 2r: 3.31E-04 2x: 1.66E+08 2u: 8.28E+02 ir: 1.49E-04 iu: 5.05E+01 rsn:   0
  4 2r: 3.67E-08 2x: 1.66E+08 2u: 1.79E+00 ir: 1.85E-08 iu: 5.59E-01 rsn: itol_upd

 Step     31 Time=  3.83000E-01 Dt=  3.30000E-02 [y] conv_reason: 11
  newton =   4 [     133] linear =   305 [      6768] cuts =  0 [   0]
  --> SNES Linear/Non-Linear Iterations = 305 / 4
  --> SNES Residual: 0.367187E-07 0.359987E-12 0.184790E-07
  --> max change: dpmx=   7.6688E+03

== REACTIVE TRANSPORT ==========================================================
  0 2r: 1.44E+01 2x: 0.00E+00 2u: 0.00E+00 ir: 3.52E-01 iu: 0.00E+00 rsn:   0
  1 2r: 3.38E-05 2x: 5.49E+01 2u: 4.31E+00 ir: 3.40E-06 iu: 8.13E-02 rsn:   0
  2 2r: 1.86E-10 2x: 5.49E+01 2u: 9.40E-06 ir: 2.88E-11 iu: 1.15E-06 rsn: rtol

 Step     31 Time=  3.83000E-01 Dt=  3.30000E-02 [y] conv_reason: 3
  newton =   2 [      51] linear =     4 [        92] cuts =  0 [   0]
  --> SNES Linear/Non-Linear Iterations = 4 / 2
  --> SNES Residual: 0.185927E-09 0.185927E-09 0.288001E-10
  --> max change:  dcmx=   8.1252E-02  dc/dt=   7.8075E-08 [mol/s]

== RICHARDS FLOW ===============================================================
  0 2r: 5.64E+00 2x: 0.00E+00 2u: 0.00E+00 ir: 3.15E-01 iu: 0.00E+00 rsn:   0
  1 2r: 1.53E-01 2x: 1.66E+08 2u: 4.65E+05 ir: 4.05E-02 iu: 7.65E+03 rsn:   0
  2 2r: 1.16E-03 2x: 1.66E+08 2u: 2.25E+04 ir: 3.13E-04 iu: 6.62E+02 rsn:   0
  3 2r: 2.09E-06 2x: 1.66E+08 2u: 2.31E+02 ir: 9.25E-07 iu: 2.26E+01 rsn:   0
  4 2r: 2.66E-10 2x: 1.66E+08 2u: 2.47E-01 ir: 7.19E-11 iu: 7.67E-02 rsn: itol_upd

 Step     32 Time=  4.49000E-01 Dt=  6.60000E-02 [y] conv_reason: 11
  newton =   4 [     137] linear =   278 [      7046] cuts =  0 [   0]
  --> SNES Linear/Non-Linear Iterations = 278 / 4
  --> SNES Residual: 0.266029E-09 0.260813E-14 0.718554E-10
  --> max change: dpmx=   6.9809E+03

== REACTIVE TRANSPORT ==========================================================
  0 2r: 1.40E+01 2x: 0.00E+00 2u: 0.00E+00 ir: 3.33E-01 iu: 0.00E+00 rsn:   0
  1 2r: 1.07E-05 2x: 6.01E+01 2u: 8.11E+00 ir: 1.08E-06 iu: 1.44E-01 rsn:   0
  2 2r: 3.75E-12 2x: 6.01E+01 2u: 5.11E-06 ir: 6.03E-13 iu: 5.55E-07 rsn: rtol

 Step     32 Time=  4.49000E-01 Dt=  6.60000E-02 [y] conv_reason: 3
  newton =   2 [      53] linear =     6 [        98] cuts =  0 [   0]
  --> SNES Linear/Non-Linear Iterations = 6 / 2
  --> SNES Residual: 0.375107E-11 0.375107E-11 0.602908E-12
  --> max change:  dcmx=   1.4448E-01  dc/dt=   6.9418E-08 [mol/s]

== RICHARDS FLOW ===============================================================
  0 2r: 1.12E+01 2x: 0.00E+00 2u: 0.00E+00 ir: 6.30E-01 iu: 0.00E+00 rsn:   0
  1 2r: 2.08E+01 2x: 1.67E+08 2u: 6.53E+05 ir: 8.27E-01 iu: 5.11E+03 rsn:   0
  2 2r: 6.61E-03 2x: 1.67E+08 2u: 5.07E+04 ir: 2.33E-03 iu: 2.69E+03 rsn:   0
  3 2r: 2.96E-05 2x: 1.67E+08 2u: 6.74E+02 ir: 8.24E-06 iu: 1.09E+02 rsn:   0
  4 2r: 5.36E-09 2x: 1.67E+08 2u: 6.32E+00 ir: 5.88E-10 iu: 4.12E+00 rsn: rtol

 Step     33 Time=  5.00000E-01 Dt=  5.10000E-02 [y] conv_reason: 3
  newton =   4 [     141] linear =   275 [      7321] cuts =  0 [   0]
  --> SNES Linear/Non-Linear Iterations = 275 / 4
  --> SNES Residual: 0.535547E-08 0.525046E-13 0.588483E-09
  --> max change: dpmx=   5.1042E+03

== REACTIVE TRANSPORT ==========================================================
  0 2r: 1.31E+01 2x: 0.00E+00 2u: 0.00E+00 ir: 2.95E-01 iu: 0.00E+00 rsn:   0
  1 2r: 1.41E-04 2x: 6.40E+01 2u: 6.04E+00 ir: 1.05E-05 iu: 1.03E-01 rsn:   0
  2 2r: 3.83E-11 2x: 6.40E+01 2u: 5.66E-05 ir: 6.45E-12 iu: 5.12E-06 rsn: rtol

 Step     33 Time=  5.00000E-01 Dt=  5.10000E-02 [y] conv_reason: 3
  newton =   2 [      55] linear =     5 [       103] cuts =  0 [   0]
  --> SNES Linear/Non-Linear Iterations = 5 / 2
  --> SNES Residual: 0.383396E-10 0.383396E-10 0.644557E-11
  --> max change:  dcmx=   1.0303E-01  dc/dt=   6.4063E-08 [mol/s]

 --> appending to hdf5 output file: 3D_solute.h5
      0.11 Seconds to write HDF5 file.
 --> write tecplot output file: 3D_solute-002.tec
 --> write tecplot velocity output file: 3D_solute-vel-002.tec
      4.25 Seconds to write to Tecplot file(s)

== RICHARDS FLOW ===============================================================
  0 2r: 8.69E+00 2x: 0.00E+00 2u: 0.00E+00 ir: 4.87E-01 iu: 0.00E+00 rsn:   0
  1 2r: 4.93E+00 2x: 1.67E+08 2u: 7.33E+05 ir: 3.71E-01 iu: 7.52E+03 rsn:   0
  2 2r: 8.59E-03 2x: 1.67E+08 2u: 2.67E+04 ir: 1.46E-03 iu: 1.19E+03 rsn:   0
  3 2r: 1.71E-05 2x: 1.67E+08 2u: 4.77E+02 ir: 3.97E-06 iu: 8.99E+01 rsn:   0
  4 2r: 1.75E-09 2x: 1.67E+08 2u: 1.66E+00 ir: 5.39E-10 iu: 5.54E-01 rsn: itol_upd

 Step     34 Time=  6.00000E-01 Dt=  1.00000E-01 [y] conv_reason: 11
  newton =   4 [     145] linear =   270 [      7591] cuts =  0 [   0]
  --> SNES Linear/Non-Linear Iterations = 270 / 4
  --> SNES Residual: 0.174558E-08 0.171135E-13 0.539009E-09
  --> max change: dpmx=   6.6917E+03

== REACTIVE TRANSPORT ==========================================================
  0 2r: 1.26E+01 2x: 0.00E+00 2u: 0.00E+00 ir: 2.73E-01 iu: 0.00E+00 rsn:   0
  1 2r: 6.20E-05 2x: 7.07E+01 2u: 1.10E+01 ir: 1.15E-05 iu: 1.73E-01 rsn:   0
  2 2r: 2.80E-10 2x: 7.07E+01 2u: 4.02E-05 ir: 1.90E-10 iu: 3.07E-06 rsn: rtol

 Step     34 Time=  6.00000E-01 Dt=  1.00000E-01 [y] conv_reason: 3
  newton =   2 [      57] linear =     6 [       109] cuts =  0 [   0]
  --> SNES Linear/Non-Linear Iterations = 6 / 2
  --> SNES Residual: 0.279771E-09 0.279771E-09 0.190412E-09
  --> max change:  dcmx=   1.7283E-01  dc/dt=   5.4805E-08 [mol/s]

== RICHARDS FLOW ===============================================================
  0 2r: 9.10E-02 2x: 0.00E+00 2u: 0.00E+00 ir: 5.53E-03 iu: 0.00E+00 rsn:   0
  1 2r: 8.79E-02 2x: 1.67E+08 2u: 3.29E+05 ir: 1.44E-02 iu: 5.01E+03 rsn:   0
  2 2r: 5.89E-04 2x: 1.67E+08 2u: 1.78E+04 ir: 9.26E-05 iu: 7.58E+02 rsn:   0
  3 2r: 4.34E-07 2x: 1.67E+08 2u: 3.81E+02 ir: 5.82E-08 iu: 2.98E+01 rsn:   0
  4 2r: 3.06E-09 2x: 1.67E+08 2u: 3.16E+00 ir: 1.31E-09 iu: 5.21E-02 rsn: itol_upd

 Step     35 Time=  7.00000E-01 Dt=  1.00000E-01 [y] conv_reason: 11
  newton =   4 [     149] linear =   243 [      7834] cuts =  0 [   0]
  --> SNES Linear/Non-Linear Iterations = 243 / 4
  --> SNES Residual: 0.306331E-08 0.300325E-13 0.131264E-08
  --> max change: dpmx=   4.5862E+03

== REACTIVE TRANSPORT ==========================================================
  0 2r: 1.17E+01 2x: 0.00E+00 2u: 0.00E+00 ir: 2.32E-01 iu: 0.00E+00 rsn:   0
  1 2r: 5.64E-05 2x: 7.68E+01 2u: 1.03E+01 ir: 2.76E-05 iu: 1.53E-01 rsn:   0
  2 2r: 1.03E-09 2x: 7.68E+01 2u: 2.77E-05 ir: 8.73E-10 iu: 3.01E-06 rsn: rtol

 Step     35 Time=  7.00000E-01 Dt=  1.00000E-01 [y] conv_reason: 3
  newton =   2 [      59] linear =     6 [       115] cuts =  0 [   0]
  --> SNES Linear/Non-Linear Iterations = 6 / 2
  --> SNES Residual: 0.103347E-08 0.103347E-08 0.873096E-09
  --> max change:  dcmx=   1.5264E-01  dc/dt=   4.8403E-08 [mol/s]

== RICHARDS FLOW ===============================================================
  0 2r: 5.01E-02 2x: 0.00E+00 2u: 0.00E+00 ir: 2.00E-03 iu: 0.00E+00 rsn:   0
  1 2r: 1.68E-02 2x: 1.67E+08 2u: 1.25E+05 ir: 4.45E-03 iu: 1.94E+03 rsn:   0
  2 2r: 4.48E-05 2x: 1.67E+08 2u: 2.44E+03 ir: 1.00E-05 iu: 1.14E+02 rsn:   0
  3 2r: 2.53E-08 2x: 1.67E+08 2u: 2.50E+01 ir: 1.05E-08 iu: 1.28E+00 rsn:   0
  4 2r: 2.59E-11 2x: 1.67E+08 2u: 1.44E-02 ir: 1.09E-11 iu: 1.66E-04 rsn: itol_upd

 Step     36 Time=  7.50000E-01 Dt=  5.00000E-02 [y] conv_reason: 11
  newton =   4 [     153] linear =   256 [      8090] cuts =  0 [   0]
  --> SNES Linear/Non-Linear Iterations = 256 / 4
  --> SNES Residual: 0.258820E-10 0.253745E-15 0.109104E-10
  --> max change: dpmx=   1.8755E+03

== REACTIVE TRANSPORT ==========================================================
  0 2r: 1.10E+01 2x: 0.00E+00 2u: 0.00E+00 ir: 2.06E-01 iu: 0.00E+00 rsn:   0
  1 2r: 1.34E-04 2x: 7.99E+01 2u: 5.03E+00 ir: 8.08E-05 iu: 7.34E-02 rsn:   0
  2 2r: 3.92E-11 2x: 7.99E+01 2u: 1.64E-05 ir: 2.87E-11 iu: 2.21E-06 rsn: rtol

 Step     36 Time=  7.50000E-01 Dt=  5.00000E-02 [y] conv_reason: 3
  newton =   2 [      61] linear =     5 [       120] cuts =  0 [   0]
  --> SNES Linear/Non-Linear Iterations = 5 / 2
  --> SNES Residual: 0.392176E-10 0.392176E-10 0.286838E-10
  --> max change:  dcmx=   7.3377E-02  dc/dt=   4.6536E-08 [mol/s]

 --> appending to hdf5 output file: 3D_solute.h5
      0.13 Seconds to write HDF5 file.
 --> write tecplot output file: 3D_solute-003.tec
 --> write tecplot velocity output file: 3D_solute-vel-003.tec
      3.51 Seconds to write to Tecplot file(s)

== RICHARDS FLOW ===============================================================
  0 2r: 3.85E-02 2x: 0.00E+00 2u: 0.00E+00 ir: 1.33E-03 iu: 0.00E+00 rsn:   0
  1 2r: 2.04E-02 2x: 1.67E+08 2u: 1.79E+05 ir: 5.91E-03 iu: 3.42E+03 rsn:   0
  2 2r: 2.86E-05 2x: 1.67E+08 2u: 7.02E+03 ir: 9.43E-06 iu: 2.39E+02 rsn:   0
  3 2r: 2.06E-08 2x: 1.67E+08 2u: 3.42E+01 ir: 9.17E-09 iu: 1.58E+00 rsn:   0
  4 2r: 1.99E-11 2x: 1.67E+08 2u: 1.33E-02 ir: 6.95E-12 iu: 1.26E-04 rsn: itol_upd

 Step     37 Time=  8.50000E-01 Dt=  1.00000E-01 [y] conv_reason: 11
  newton =   4 [     157] linear =   284 [      8374] cuts =  0 [   0]
  --> SNES Linear/Non-Linear Iterations = 284 / 4
  --> SNES Residual: 0.198819E-10 0.194920E-15 0.694556E-11
  --> max change: dpmx=   3.1836E+03

== REACTIVE TRANSPORT ==========================================================
  0 2r: 1.07E+01 2x: 0.00E+00 2u: 0.00E+00 ir: 1.98E-01 iu: 0.00E+00 rsn:   0
  1 2r: 1.11E-04 2x: 8.54E+01 2u: 9.58E+00 ir: 7.78E-05 iu: 1.34E-01 rsn:   0
  2 2r: 2.73E-09 2x: 8.54E+01 2u: 1.78E-05 ir: 2.35E-09 iu: 2.48E-06 rsn: rtol

 Step     37 Time=  8.50000E-01 Dt=  1.00000E-01 [y] conv_reason: 3
  newton =   2 [      63] linear =     6 [       126] cuts =  0 [   0]
  --> SNES Linear/Non-Linear Iterations = 6 / 2
  --> SNES Residual: 0.273413E-08 0.273413E-08 0.235057E-08
  --> max change:  dcmx=   1.3362E-01  dc/dt=   4.2371E-08 [mol/s]

== RICHARDS FLOW ===============================================================
  0 2r: 8.52E+00 2x: 0.00E+00 2u: 0.00E+00 ir: 4.77E-01 iu: 0.00E+00 rsn:   0
  1 2r: 4.88E+00 2x: 1.68E+08 2u: 5.43E+05 ir: 1.97E-01 iu: 3.88E+03 rsn:   0
  2 2r: 3.97E-03 2x: 1.68E+08 2u: 1.25E+04 ir: 9.00E-04 iu: 6.42E+02 rsn:   0
  3 2r: 2.04E-05 2x: 1.68E+08 2u: 4.97E+02 ir: 4.98E-06 iu: 8.73E+01 rsn:   0
  4 2r: 5.86E-09 2x: 1.68E+08 2u: 7.45E+00 ir: 1.51E-09 iu: 3.11E+00 rsn: rtol

 Step     38 Time=  9.50000E-01 Dt=  1.00000E-01 [y] conv_reason: 3
  newton =   4 [     161] linear =   272 [      8646] cuts =  0 [   0]
  --> SNES Linear/Non-Linear Iterations = 272 / 4
  --> SNES Residual: 0.585722E-08 0.574237E-13 0.150665E-08
  --> max change: dpmx=   3.8761E+03

== REACTIVE TRANSPORT ==========================================================
  0 2r: 1.02E+01 2x: 0.00E+00 2u: 0.00E+00 ir: 1.79E-01 iu: 0.00E+00 rsn:   0
  1 2r: 2.83E-04 2x: 9.07E+01 2u: 9.17E+00 ir: 1.96E-04 iu: 1.23E-01 rsn:   0
  2 2r: 2.27E-09 2x: 9.07E+01 2u: 9.41E-06 ir: 1.98E-09 iu: 1.73E-06 rsn: rtol

 Step     38 Time=  9.50000E-01 Dt=  1.00000E-01 [y] conv_reason: 3
  newton =   2 [      65] linear =     6 [       132] cuts =  0 [   0]
  --> SNES Linear/Non-Linear Iterations = 6 / 2
  --> SNES Residual: 0.226914E-08 0.226914E-08 0.197909E-08
  --> max change:  dcmx=   1.2271E-01  dc/dt=   3.8910E-08 [mol/s]

== RICHARDS FLOW ===============================================================
  0 2r: 8.52E+00 2x: 0.00E+00 2u: 0.00E+00 ir: 4.77E-01 iu: 0.00E+00 rsn:   0
  1 2r: 6.62E+00 2x: 1.68E+08 2u: 4.86E+05 ir: 4.21E-01 iu: 3.86E+03 rsn:   0
  2 2r: 1.89E-03 2x: 1.68E+08 2u: 1.81E+04 ir: 5.47E-04 iu: 1.30E+03 rsn:   0
  3 2r: 3.88E-06 2x: 1.68E+08 2u: 2.58E+02 ir: 1.78E-06 iu: 5.90E+01 rsn:   0
  4 2r: 1.11E-09 2x: 1.68E+08 2u: 1.11E+00 ir: 4.66E-10 iu: 2.15E-01 rsn: itol_upd

 Step     39 Time=  1.00000E+00 Dt=  5.00000E-02 [y] conv_reason: 11
  newton =   4 [     165] linear =   294 [      8940] cuts =  0 [   0]
  --> SNES Linear/Non-Linear Iterations = 294 / 4
  --> SNES Residual: 0.111140E-08 0.108961E-13 0.466290E-09
  --> max change: dpmx=   3.8599E+03

== REACTIVE TRANSPORT ==========================================================
  0 2r: 9.77E+00 2x: 0.00E+00 2u: 0.00E+00 ir: 1.64E-01 iu: 0.00E+00 rsn:   0
  1 2r: 8.90E-04 2x: 9.33E+01 2u: 4.51E+00 ir: 5.73E-04 iu: 6.18E-02 rsn:   0
  2 2r: 3.95E-11 2x: 9.33E+01 2u: 1.73E-05 ir: 2.31E-11 iu: 5.84E-06 rsn: rtol

 Step     39 Time=  1.00000E+00 Dt=  5.00000E-02 [y] conv_reason: 3
  newton =   2 [      67] linear =     5 [       137] cuts =  0 [   0]
  --> SNES Linear/Non-Linear Iterations = 5 / 2
  --> SNES Residual: 0.395171E-10 0.395171E-10 0.230753E-10
  --> max change:  dcmx=   6.1842E-02  dc/dt=   3.9220E-08 [mol/s]

 --> appending to hdf5 output file: 3D_solute.h5
      0.16 Seconds to write HDF5 file.
 --> write tecplot output file: 3D_solute-004.tec
 --> write tecplot velocity output file: 3D_solute-vel-004.tec
      4.71 Seconds to write to Tecplot file(s)

== RICHARDS FLOW ===============================================================
  0 2r: 4.26E+00 2x: 0.00E+00 2u: 0.00E+00 ir: 2.38E-01 iu: 0.00E+00 rsn:   0
  1 2r: 1.83E-01 2x: 1.68E+08 2u: 4.65E+05 ir: 3.60E-02 iu: 2.72E+03 rsn:   0
  2 2r: 3.33E-02 2x: 1.68E+08 2u: 3.91E+03 ir: 7.96E-03 iu: 1.69E+02 rsn:   0
  3 2r: 6.80E-07 2x: 1.68E+08 2u: 8.25E+01 ir: 3.26E-07 iu: 2.59E+01 rsn:   0
  4 2r: 5.40E-10 2x: 1.68E+08 2u: 5.24E-01 ir: 2.33E-10 iu: 1.87E-02 rsn: itol_upd

 Step     40 Time=  1.10000E+00 Dt=  1.00000E-01 [y] conv_reason: 11
  newton =   4 [     169] linear =   303 [      9243] cuts =  0 [   0]
  --> SNES Linear/Non-Linear Iterations = 303 / 4
  --> SNES Residual: 0.540105E-09 0.529515E-14 0.232630E-09
  --> max change: dpmx=   2.7820E+03

== REACTIVE TRANSPORT ==========================================================
  0 2r: 9.61E+00 2x: 0.00E+00 2u: 0.00E+00 ir: 1.58E-01 iu: 0.00E+00 rsn:   0
  1 2r: 4.88E-04 2x: 9.81E+01 2u: 8.70E+00 ir: 3.46E-04 iu: 1.32E-01 rsn:   0
  2 2r: 3.58E-09 2x: 9.81E+01 2u: 9.03E-06 ir: 2.14E-09 iu: 2.49E-06 rsn: rtol

 Step     40 Time=  1.10000E+00 Dt=  1.00000E-01 [y] conv_reason: 3
  newton =   2 [      69] linear =     6 [       143] cuts =  0 [   0]
  --> SNES Linear/Non-Linear Iterations = 6 / 2
  --> SNES Residual: 0.358396E-08 0.358396E-08 0.214481E-08
  --> max change:  dcmx=   1.3183E-01  dc/dt=   4.1802E-08 [mol/s]

== RICHARDS FLOW ===============================================================
  0 2r: 2.55E+01 2x: 0.00E+00 2u: 0.00E+00 ir: 1.43E+00 iu: 0.00E+00 rsn:   0
  1 2r: 4.82E-01 2x: 1.68E+08 2u: 1.23E+06 ir: 1.32E-01 iu: 1.15E+04 rsn:   0
  2 2r: 1.81E-01 2x: 1.68E+08 2u: 2.46E+05 ir: 1.26E-02 iu: 1.05E+04 rsn:   0
  3 2r: 3.59E-02 2x: 1.68E+08 2u: 5.93E+04 ir: 1.95E-03 iu: 2.84E+03 rsn:   0
  4 2r: 2.75E-03 2x: 1.68E+08 2u: 1.75E+04 ir: 1.93E-04 iu: 1.16E+03 rsn:   0
  5 2r: 2.69E-05 2x: 1.68E+08 2u: 1.56E+03 ir: 2.38E-06 iu: 1.41E+02 rsn:   0
  6 2r: 1.90E-08 2x: 1.68E+08 2u: 2.21E+01 ir: 4.96E-09 iu: 1.77E+00 rsn: rtol

 Step     41 Time=  1.20000E+00 Dt=  1.00000E-01 [y] conv_reason: 3
  newton =   6 [     175] linear =   389 [      9632] cuts =  0 [   0]
  --> SNES Linear/Non-Linear Iterations = 389 / 6
  --> SNES Residual: 0.189875E-07 0.186152E-12 0.496189E-08
  --> max change: dpmx=   1.1580E+04

== REACTIVE TRANSPORT ==========================================================
  0 2r: 9.30E+00 2x: 0.00E+00 2u: 0.00E+00 ir: 1.54E-01 iu: 0.00E+00 rsn:   0
  1 2r: 8.33E-04 2x: 1.03E+02 2u: 8.42E+00 ir: 6.30E-04 iu: 1.07E-01 rsn:   0
  2 2r: 1.55E-10 2x: 1.03E+02 2u: 1.26E-05 ir: 9.59E-11 iu: 4.13E-06 rsn: rtol

 Step     41 Time=  1.20000E+00 Dt=  1.00000E-01 [y] conv_reason: 3
  newton =   2 [      71] linear =     7 [       150] cuts =  0 [   0]
  --> SNES Linear/Non-Linear Iterations = 7 / 2
  --> SNES Residual: 0.154567E-09 0.154567E-09 0.958540E-10
  --> max change:  dcmx=   1.0705E-01  dc/dt=   3.3947E-08 [mol/s]

== RICHARDS FLOW ===============================================================
  0 2r: 2.55E+01 2x: 0.00E+00 2u: 0.00E+00 ir: 1.43E+00 iu: 0.00E+00 rsn:   0
  1 2r: 4.60E-01 2x: 1.67E+08 2u: 1.31E+06 ir: 9.97E-02 iu: 1.16E+04 rsn:   0
  2 2r: 3.42E-02 2x: 1.67E+08 2u: 2.37E+04 ir: 1.54E-02 iu: 7.41E+02 rsn:   0
  3 2r: 3.61E-04 2x: 1.67E+08 2u: 4.94E+02 ir: 1.95E-04 iu: 6.25E+01 rsn:   0
  4 2r: 5.62E-08 2x: 1.67E+08 2u: 1.87E+00 ir: 3.06E-08 iu: 7.81E-01 rsn: itol_upd

 Step     42 Time=  1.23300E+00 Dt=  3.30000E-02 [y] conv_reason: 11
  newton =   4 [     179] linear =   300 [      9932] cuts =  0 [   0]
  --> SNES Linear/Non-Linear Iterations = 300 / 4
  --> SNES Residual: 0.562241E-07 0.551217E-12 0.306167E-07
  --> max change: dpmx=   1.1595E+04

== REACTIVE TRANSPORT ==========================================================
  0 2r: 9.07E+00 2x: 0.00E+00 2u: 0.00E+00 ir: 1.50E-01 iu: 0.00E+00 rsn:   0
  1 2r: 8.62E-04 2x: 1.04E+02 2u: 2.78E+00 ir: 6.18E-04 iu: 3.61E-02 rsn:   0
  2 2r: 9.94E-11 2x: 1.04E+02 2u: 9.54E-06 ir: 6.78E-11 iu: 3.68E-06 rsn: rtol

 Step     42 Time=  1.23300E+00 Dt=  3.30000E-02 [y] conv_reason: 3
  newton =   2 [      73] linear =     5 [       155] cuts =  0 [   0]
  --> SNES Linear/Non-Linear Iterations = 5 / 2
  --> SNES Residual: 0.994418E-10 0.994418E-10 0.678009E-10
  --> max change:  dcmx=   3.6094E-02  dc/dt=   3.4683E-08 [mol/s]

== RICHARDS FLOW ===============================================================
  0 2r: 8.28E+00 2x: 0.00E+00 2u: 0.00E+00 ir: 4.72E-01 iu: 0.00E+00 rsn:   0
  1 2r: 5.27E-01 2x: 1.67E+08 2u: 5.00E+05 ir: 6.71E-02 iu: 3.82E+03 rsn:   0
  2 2r: 7.27E-02 2x: 1.67E+08 2u: 1.09E+04 ir: 8.21E-03 iu: 7.70E+02 rsn:   0
  3 2r: 4.77E-04 2x: 1.67E+08 2u: 3.04E+02 ir: 6.33E-05 iu: 3.58E+01 rsn:   0
  4 2r: 2.30E-08 2x: 1.67E+08 2u: 1.72E+00 ir: 3.69E-09 iu: 2.68E-01 rsn: itol_upd

 Step     43 Time=  1.25000E+00 Dt=  1.70000E-02 [y] conv_reason: 11
  newton =   4 [     183] linear =   279 [     10211] cuts =  0 [   0]
  --> SNES Linear/Non-Linear Iterations = 279 / 4
  --> SNES Residual: 0.229835E-07 0.225329E-12 0.368697E-08
  --> max change: dpmx=   3.8334E+03

== REACTIVE TRANSPORT ==========================================================
  0 2r: 9.03E+00 2x: 0.00E+00 2u: 0.00E+00 ir: 1.51E-01 iu: 0.00E+00 rsn:   0
  1 2r: 5.39E-05 2x: 1.05E+02 2u: 1.43E+00 ir: 4.02E-05 iu: 1.88E-02 rsn:   0
  2 2r: 6.40E-11 2x: 1.05E+02 2u: 3.80E-07 ir: 5.15E-11 iu: 1.72E-07 rsn: rtol

 Step     43 Time=  1.25000E+00 Dt=  1.70000E-02 [y] conv_reason: 3
  newton =   2 [      75] linear =     4 [       159] cuts =  0 [   0]
  --> SNES Linear/Non-Linear Iterations = 4 / 2
  --> SNES Residual: 0.640338E-10 0.640338E-10 0.514799E-10
  --> max change:  dcmx=   1.8776E-02  dc/dt=   3.5023E-08 [mol/s]

 --> appending to hdf5 output file: 3D_solute.h5
      0.16 Seconds to write HDF5 file.
 --> write tecplot output file: 3D_solute-005.tec
 --> write tecplot velocity output file: 3D_solute-vel-005.tec
      4.52 Seconds to write to Tecplot file(s)

== RICHARDS FLOW ===============================================================
  0 2r: 4.26E+00 2x: 0.00E+00 2u: 0.00E+00 ir: 2.43E-01 iu: 0.00E+00 rsn:   0
  1 2r: 3.47E-01 2x: 1.66E+08 2u: 7.18E+05 ir: 9.23E-02 iu: 4.44E+03 rsn:   0
  2 2r: 2.28E-02 2x: 1.66E+08 2u: 3.04E+04 ir: 9.18E-03 iu: 4.98E+02 rsn:   0
  3 2r: 7.65E-05 2x: 1.66E+08 2u: 5.32E+02 ir: 3.94E-05 iu: 2.35E+01 rsn:   0
  4 2r: 1.69E-09 2x: 1.66E+08 2u: 6.36E-01 ir: 7.39E-10 iu: 9.91E-02 rsn: itol_upd

 Step     44 Time=  1.31600E+00 Dt=  6.60000E-02 [y] conv_reason: 11
  newton =   4 [     187] linear =   299 [     10510] cuts =  0 [   0]
  --> SNES Linear/Non-Linear Iterations = 299 / 4
  --> SNES Residual: 0.168801E-08 0.165491E-13 0.738750E-09
  --> max change: dpmx=   4.1283E+03

== REACTIVE TRANSPORT ==========================================================
  0 2r: 9.08E+00 2x: 0.00E+00 2u: 0.00E+00 ir: 1.53E-01 iu: 0.00E+00 rsn:   0
  1 2r: 1.25E-03 2x: 1.07E+02 2u: 2.86E+00 ir: 8.89E-04 iu: 4.19E-02 rsn:   0
  2 2r: 2.26E-10 2x: 1.07E+02 2u: 1.34E-05 ir: 1.45E-10 iu: 5.22E-06 rsn: rtol

 Step     44 Time=  1.28400E+00 Dt=  3.40000E-02 [y] conv_reason: 3
  newton =   2 [      77] linear =     5 [       164] cuts =  0 [   0]
  --> SNES Linear/Non-Linear Iterations = 5 / 2
  --> SNES Residual: 0.225747E-09 0.225747E-09 0.145005E-09
  --> max change:  dcmx=   4.1868E-02  dc/dt=   3.9048E-08 [mol/s]

== REACTIVE TRANSPORT ==========================================================
  0 2r: 9.00E+00 2x: 0.00E+00 2u: 0.00E+00 ir: 1.51E-01 iu: 0.00E+00 rsn:   0
  1 2r: 1.11E-03 2x: 1.08E+02 2u: 2.67E+00 ir: 7.90E-04 iu: 3.67E-02 rsn:   0
  2 2r: 1.94E-10 2x: 1.08E+02 2u: 1.08E-05 ir: 1.22E-10 iu: 4.42E-06 rsn: rtol

 Step     45 Time=  1.31600E+00 Dt=  3.20000E-02 [y] conv_reason: 3
  newton =   2 [      79] linear =     5 [       169] cuts =  0 [   0]
  --> SNES Linear/Non-Linear Iterations = 5 / 2
  --> SNES Residual: 0.194336E-09 0.194336E-09 0.122372E-09
  --> max change:  dcmx=   3.6681E-02  dc/dt=   3.6348E-08 [mol/s]

== RICHARDS FLOW ===============================================================
  0 2r: 1.12E+01 2x: 0.00E+00 2u: 0.00E+00 ir: 6.30E-01 iu: 0.00E+00 rsn:   0
  1 2r: 5.63E-01 2x: 1.66E+08 2u: 4.48E+05 ir: 4.42E-02 iu: 5.03E+03 rsn:   0
  2 2r: 7.31E-03 2x: 1.66E+08 2u: 3.19E+04 ir: 3.44E-03 iu: 2.94E+02 rsn:   0
  3 2r: 4.66E-06 2x: 1.66E+08 2u: 1.70E+02 ir: 1.67E-06 iu: 1.27E+01 rsn:   0
  4 2r: 3.60E-10 2x: 1.66E+08 2u: 3.07E-01 ir: 1.48E-10 iu: 6.89E-03 rsn: itol_upd

 Step     45 Time=  1.41600E+00 Dt=  1.00000E-01 [y] conv_reason: 11
  newton =   4 [     191] linear =   296 [     10806] cuts =  0 [   0]
  --> SNES Linear/Non-Linear Iterations = 296 / 4
  --> SNES Residual: 0.360246E-09 0.353183E-14 0.147748E-09
  --> max change: dpmx=   5.0434E+03

== REACTIVE TRANSPORT ==========================================================
  0 2r: 8.92E+00 2x: 0.00E+00 2u: 0.00E+00 ir: 1.48E-01 iu: 0.00E+00 rsn:   0
  1 2r: 1.36E-04 2x: 1.11E+02 2u: 5.55E+00 ir: 1.15E-04 iu: 7.27E-02 rsn:   0
  2 2r: 9.16E-10 2x: 1.11E+02 2u: 2.99E-06 ir: 8.07E-10 iu: 7.03E-07 rsn: rtol

 Step     46 Time=  1.38400E+00 Dt=  6.80000E-02 [y] conv_reason: 3
  newton =   2 [      81] linear =     6 [       175] cuts =  0 [   0]
  --> SNES Linear/Non-Linear Iterations = 6 / 2
  --> SNES Residual: 0.916102E-09 0.916102E-09 0.807018E-09
  --> max change:  dcmx=   7.2736E-02  dc/dt=   3.3918E-08 [mol/s]

== REACTIVE TRANSPORT ==========================================================
  0 2r: 8.75E+00 2x: 0.00E+00 2u: 0.00E+00 ir: 1.44E-01 iu: 0.00E+00 rsn:   0
  1 2r: 1.52E-03 2x: 1.12E+02 2u: 2.59E+00 ir: 1.08E-03 iu: 3.35E-02 rsn:   0
  2 2r: 2.14E-10 2x: 1.12E+02 2u: 1.41E-05 ir: 1.09E-10 iu: 5.86E-06 rsn: rtol

 Step     47 Time=  1.41600E+00 Dt=  3.20000E-02 [y] conv_reason: 3
  newton =   2 [      83] linear =     5 [       180] cuts =  0 [   0]
  --> SNES Linear/Non-Linear Iterations = 5 / 2
  --> SNES Residual: 0.213809E-09 0.213809E-09 0.109281E-09
  --> max change:  dcmx=   3.3526E-02  dc/dt=   3.3222E-08 [mol/s]

== RICHARDS FLOW ===============================================================
[...]
  --> SNES Linear/Non-Linear Iterations = 7 / 2
  --> SNES Residual: 0.134173E-09 0.134173E-09 0.932232E-10
  --> max change:  dcmx=   4.2554E-02  dc/dt=   1.3494E-08 [mol/s]

== RICHARDS FLOW ===============================================================
  0 2r: 2.55E+01 2x: 0.00E+00 2u: 0.00E+00 ir: 1.43E+00 iu: 0.00E+00 rsn:   0
  1 2r: 4.59E-01 2x: 1.68E+08 2u: 1.26E+06 ir: 1.28E-01 iu: 1.16E+04 rsn:   0
  2 2r: 5.21E-02 2x: 1.68E+08 2u: 8.89E+04 ir: 9.98E-03 iu: 5.36E+03 rsn:   0
  3 2r: 4.47E-03 2x: 1.68E+08 2u: 1.36E+04 ir: 5.65E-04 iu: 1.40E+03 rsn:   0
  4 2r: 8.18E-05 2x: 1.68E+08 2u: 1.58E+03 ir: 1.44E-05 iu: 2.63E+02 rsn:   0
  5 2r: 5.06E-08 2x: 1.68E+08 2u: 3.33E+01 ir: 1.16E-08 iu: 7.63E+00 rsn: rtol

 Step    145 Time=  9.20000E+00 Dt=  1.00000E-01 [y] conv_reason: 3
  newton =   5 [     588] linear =   336 [     38799] cuts =  0 [   0]
  --> SNES Linear/Non-Linear Iterations = 336 / 5
  --> SNES Residual: 0.505574E-07 0.495661E-12 0.115786E-07
  --> max change: dpmx=   1.1581E+04

== REACTIVE TRANSPORT ==========================================================
  0 2r: 1.98E+00 2x: 0.00E+00 2u: 0.00E+00 ir: 1.85E-01 iu: 0.00E+00 rsn:   0
  1 2r: 9.52E-06 2x: 2.24E+02 2u: 1.73E+00 ir: 6.84E-06 iu: 4.44E-02 rsn:   0
  2 2r: 2.08E-11 2x: 2.24E+02 2u: 2.42E-07 ir: 1.25E-11 iu: 4.52E-08 rsn: rtol

 Step    161 Time=  9.20000E+00 Dt=  1.00000E-01 [y] conv_reason: 3
  newton =   2 [     311] linear =     7 [       904] cuts =  0 [   0]
  --> SNES Linear/Non-Linear Iterations = 7 / 2
  --> SNES Residual: 0.207637E-10 0.207637E-10 0.125340E-10
  --> max change:  dcmx=   4.4368E-02  dc/dt=   1.4069E-08 [mol/s]

== RICHARDS FLOW ===============================================================
  0 2r: 2.55E+01 2x: 0.00E+00 2u: 0.00E+00 ir: 1.43E+00 iu: 0.00E+00 rsn:   0
  1 2r: 5.10E-01 2x: 1.67E+08 2u: 1.31E+06 ir: 1.54E-01 iu: 1.16E+04 rsn:   0
  2 2r: 6.03E-02 2x: 1.67E+08 2u: 2.50E+04 ir: 2.62E-02 iu: 7.57E+02 rsn:   0
  3 2r: 8.70E-04 2x: 1.67E+08 2u: 5.58E+02 ir: 4.22E-04 iu: 8.52E+01 rsn:   0
  4 2r: 2.12E-07 2x: 1.67E+08 2u: 3.02E+00 ir: 1.12E-07 iu: 1.38E+00 rsn: rtol

 Step    146 Time=  9.23300E+00 Dt=  3.30000E-02 [y] conv_reason: 3
  newton =   4 [     592] linear =   301 [     39100] cuts =  0 [   0]
  --> SNES Linear/Non-Linear Iterations = 301 / 4
  --> SNES Residual: 0.212465E-06 0.208299E-11 0.112214E-06
  --> max change: dpmx=   1.1594E+04

== REACTIVE TRANSPORT ==========================================================
  0 2r: 2.81E+00 2x: 0.00E+00 2u: 0.00E+00 ir: 1.91E-01 iu: 0.00E+00 rsn:   0
  1 2r: 1.63E-05 2x: 2.24E+02 2u: 8.70E-01 ir: 9.68E-06 iu: 2.46E-02 rsn:   0
  2 2r: 3.10E-13 2x: 2.24E+02 2u: 1.20E-07 ir: 1.71E-13 iu: 7.37E-08 rsn: rtol

 Step    162 Time=  9.23300E+00 Dt=  3.30000E-02 [y] conv_reason: 3
  newton =   2 [     313] linear =     6 [       910] cuts =  0 [   0]
  --> SNES Linear/Non-Linear Iterations = 6 / 2
  --> SNES Residual: 0.309944E-12 0.309944E-12 0.170530E-12
  --> max change:  dcmx=   2.4613E-02  dc/dt=   2.3651E-08 [mol/s]

== RICHARDS FLOW ===============================================================
  0 2r: 8.28E+00 2x: 0.00E+00 2u: 0.00E+00 ir: 4.72E-01 iu: 0.00E+00 rsn:   0
  1 2r: 5.21E-01 2x: 1.67E+08 2u: 5.02E+05 ir: 6.48E-02 iu: 3.82E+03 rsn:   0
  2 2r: 7.10E-02 2x: 1.67E+08 2u: 1.10E+04 ir: 7.99E-03 iu: 7.66E+02 rsn:   0
  3 2r: 4.46E-04 2x: 1.67E+08 2u: 2.69E+02 ir: 5.91E-05 iu: 3.44E+01 rsn:   0
  4 2r: 1.99E-08 2x: 1.67E+08 2u: 1.68E+00 ir: 3.21E-09 iu: 2.50E-01 rsn: itol_upd

 Step    147 Time=  9.25000E+00 Dt=  1.70000E-02 [y] conv_reason: 11
  newton =   4 [     596] linear =   297 [     39397] cuts =  0 [   0]
  --> SNES Linear/Non-Linear Iterations = 297 / 4
  --> SNES Residual: 0.199425E-07 0.195515E-12 0.320513E-08
  --> max change: dpmx=   3.8342E+03

== REACTIVE TRANSPORT ==========================================================
  0 2r: 2.89E+00 2x: 0.00E+00 2u: 0.00E+00 ir: 1.17E-01 iu: 0.00E+00 rsn:   0
  1 2r: 1.94E-04 2x: 2.24E+02 2u: 4.83E-01 ir: 1.37E-04 iu: 1.59E-02 rsn:   0
  2 2r: 9.93E-11 2x: 2.24E+02 2u: 1.84E-06 ir: 6.72E-11 iu: 7.49E-07 rsn: rtol

 Step    163 Time=  9.25000E+00 Dt=  1.70000E-02 [y] conv_reason: 3
  newton =   2 [     315] linear =     4 [       914] cuts =  0 [   0]
  --> SNES Linear/Non-Linear Iterations = 4 / 2
  --> SNES Residual: 0.993190E-10 0.993190E-10 0.671889E-10
  --> max change:  dcmx=   1.5923E-02  dc/dt=   2.9700E-08 [mol/s]

 --> appending to hdf5 output file: 3D_solute.h5
      0.12 Seconds to write HDF5 file.
 --> write tecplot output file: 3D_solute-037.tec
 --> write tecplot velocity output file: 3D_solute-vel-037.tec
      3.75 Seconds to write to Tecplot file(s)

== RICHARDS FLOW ===============================================================
  0 2r: 4.26E+00 2x: 0.00E+00 2u: 0.00E+00 ir: 2.43E-01 iu: 0.00E+00 rsn:   0
  1 2r: 3.76E-01 2x: 1.66E+08 2u: 7.27E+05 ir: 8.99E-02 iu: 4.52E+03 rsn:   0
  2 2r: 3.06E-02 2x: 1.66E+08 2u: 2.94E+04 ir: 1.32E-02 iu: 5.82E+02 rsn:   0
  3 2r: 1.90E-04 2x: 1.66E+08 2u: 5.01E+02 ir: 1.02E-04 iu: 4.12E+01 rsn:   0
  4 2r: 1.16E-08 2x: 1.66E+08 2u: 8.13E-01 ir: 6.26E-09 iu: 3.14E-01 rsn: itol_upd

 Step    148 Time=  9.31600E+00 Dt=  6.60000E-02 [y] conv_reason: 11
  newton =   4 [     600] linear =   302 [     39699] cuts =  0 [   0]
  --> SNES Linear/Non-Linear Iterations = 302 / 4
  --> SNES Residual: 0.115972E-07 0.113698E-12 0.625861E-08
  --> max change: dpmx=   4.2145E+03

== REACTIVE TRANSPORT ==========================================================
  0 2r: 2.78E+00 2x: 0.00E+00 2u: 0.00E+00 ir: 1.77E-01 iu: 0.00E+00 rsn:   0
  1 2r: 1.46E-05 2x: 2.24E+02 2u: 8.91E-01 ir: 9.50E-06 iu: 3.44E-02 rsn:   0
  2 2r: 6.00E-11 2x: 2.24E+02 2u: 1.35E-07 ir: 4.48E-11 iu: 7.77E-08 rsn: rtol

 Step    164 Time=  9.28400E+00 Dt=  3.40000E-02 [y] conv_reason: 3
  newton =   2 [     317] linear =     5 [       919] cuts =  0 [   0]
  --> SNES Linear/Non-Linear Iterations = 5 / 2
  --> SNES Residual: 0.600200E-10 0.600200E-10 0.447926E-10
  --> max change:  dcmx=   3.4394E-02  dc/dt=   3.2077E-08 [mol/s]

== REACTIVE TRANSPORT ==========================================================
  0 2r: 2.57E+00 2x: 0.00E+00 2u: 0.00E+00 ir: 7.84E-02 iu: 0.00E+00 rsn:   0
  1 2r: 1.55E-06 2x: 2.24E+02 2u: 7.97E-01 ir: 9.15E-07 iu: 2.14E-02 rsn:   0
  2 2r: 2.34E-11 2x: 2.24E+02 2u: 3.46E-08 ir: 1.58E-11 iu: 1.03E-08 rsn: rtol

 Step    165 Time=  9.31600E+00 Dt=  3.20000E-02 [y] conv_reason: 3
  newton =   2 [     319] linear =     5 [       924] cuts =  0 [   0]
  --> SNES Linear/Non-Linear Iterations = 5 / 2
  --> SNES Residual: 0.234409E-10 0.234409E-10 0.158025E-10
  --> max change:  dcmx=   2.1362E-02  dc/dt=   2.1168E-08 [mol/s]

== RICHARDS FLOW ===============================================================
  0 2r: 1.12E+01 2x: 0.00E+00 2u: 0.00E+00 ir: 6.30E-01 iu: 0.00E+00 rsn:   0
  1 2r: 5.71E-01 2x: 1.66E+08 2u: 4.50E+05 ir: 4.56E-02 iu: 5.03E+03 rsn:   0
  2 2r: 3.99E-03 2x: 1.66E+08 2u: 3.11E+04 ir: 1.29E-03 iu: 2.97E+02 rsn:   0
  3 2r: 2.04E-06 2x: 1.66E+08 2u: 1.45E+02 ir: 1.24E-06 iu: 4.48E+00 rsn:   0
  4 2r: 2.76E-10 2x: 1.66E+08 2u: 2.43E-01 ir: 1.13E-10 iu: 3.82E-03 rsn: itol_upd

 Step    149 Time=  9.41600E+00 Dt=  1.00000E-01 [y] conv_reason: 11
  newton =   4 [     604] linear =   299 [     39998] cuts =  0 [   0]
  --> SNES Linear/Non-Linear Iterations = 299 / 4
  --> SNES Residual: 0.276448E-09 0.271028E-14 0.113248E-09
  --> max change: dpmx=   5.0429E+03

== REACTIVE TRANSPORT ==========================================================
  0 2r: 2.01E+00 2x: 0.00E+00 2u: 0.00E+00 ir: 5.89E-02 iu: 0.00E+00 rsn:   0
  1 2r: 1.83E-04 2x: 2.25E+02 2u: 1.29E+00 ir: 1.07E-04 iu: 2.59E-02 rsn:   0
  2 2r: 2.29E-10 2x: 2.25E+02 2u: 2.75E-06 ir: 1.21E-10 iu: 8.67E-07 rsn: rtol

 Step    166 Time=  9.38400E+00 Dt=  6.80000E-02 [y] conv_reason: 3
  newton =   2 [     321] linear =     6 [       930] cuts =  0 [   0]
  --> SNES Linear/Non-Linear Iterations = 6 / 2
  --> SNES Residual: 0.228710E-09 0.228710E-09 0.121076E-09
  --> max change:  dcmx=   2.5906E-02  dc/dt=   1.2081E-08 [mol/s]

== REACTIVE TRANSPORT ==========================================================
  0 2r: 1.87E+00 2x: 0.00E+00 2u: 0.00E+00 ir: 3.49E-02 iu: 0.00E+00 rsn:   0
  1 2r: 7.18E-06 2x: 2.25E+02 2u: 5.91E-01 ir: 3.95E-06 iu: 1.04E-02 rsn:   0
  2 2r: 3.20E-11 2x: 2.25E+02 2u: 6.23E-08 ir: 2.24E-11 iu: 3.76E-08 rsn: rtol

 Step    167 Time=  9.41600E+00 Dt=  3.20000E-02 [y] conv_reason: 3
  newton =   2 [     323] linear =     5 [       935] cuts =  0 [   0]
  --> SNES Linear/Non-Linear Iterations = 5 / 2
  --> SNES Residual: 0.319991E-10 0.319991E-10 0.223679E-10
  --> max change:  dcmx=   1.0416E-02  dc/dt=   1.0322E-08 [mol/s]

== RICHARDS FLOW ===============================================================
  0 2r: 1.70E+01 2x: 0.00E+00 2u: 0.00E+00 ir: 9.54E-01 iu: 0.00E+00 rsn:   0
  1 2r: 7.75E-01 2x: 1.67E+08 2u: 8.94E+05 ir: 9.58E-02 iu: 7.76E+03 rsn:   0
  2 2r: 1.28E-02 2x: 1.67E+08 2u: 8.99E+03 ir: 1.59E-03 iu: 7.12E+02 rsn:   0
  3 2r: 1.77E-04 2x: 1.67E+08 2u: 1.14E+03 ir: 3.41E-05 iu: 1.82E+02 rsn:   0
  4 2r: 6.31E-08 2x: 1.67E+08 2u: 1.84E+01 ir: 1.69E-08 iu: 4.20E+00 rsn: rtol

 Step    150 Time=  9.50000E+00 Dt=  8.40000E-02 [y] conv_reason: 3
  newton =   4 [     608] linear =   264 [     40262] cuts =  0 [   0]
  --> SNES Linear/Non-Linear Iterations = 264 / 4
  --> SNES Residual: 0.631207E-07 0.618831E-12 0.169296E-07
  --> max change: dpmx=   7.7636E+03

== REACTIVE TRANSPORT ==========================================================
  0 2r: 1.62E+00 2x: 0.00E+00 2u: 0.00E+00 ir: 1.10E-01 iu: 0.00E+00 rsn:   0
  1 2r: 2.33E-05 2x: 2.25E+02 2u: 1.21E+00 ir: 1.92E-05 iu: 3.12E-02 rsn:   0
  2 2r: 2.89E-11 2x: 2.25E+02 2u: 4.64E-07 ir: 1.94E-11 iu: 1.49E-07 rsn: rtol

 Step    168 Time=  9.50000E+00 Dt=  8.40000E-02 [y] conv_reason: 3
  newton =   2 [     325] linear =     7 [       942] cuts =  0 [   0]
  --> SNES Linear/Non-Linear Iterations = 7 / 2
  --> SNES Residual: 0.289341E-10 0.289341E-10 0.193836E-10
  --> max change:  dcmx=   3.1161E-02  dc/dt=   1.1763E-08 [mol/s]

 --> appending to hdf5 output file: 3D_solute.h5
      0.12 Seconds to write HDF5 file.
 --> write tecplot output file: 3D_solute-038.tec
 --> write tecplot velocity output file: 3D_solute-vel-038.tec
      4.00 Seconds to write to Tecplot file(s)
 --> Dump checkpoint file: 3D_solute-ts150.chk
      Seconds to write to checkpoint file:       0.45

== RICHARDS FLOW ===============================================================
  0 2r: 1.43E+01 2x: 0.00E+00 2u: 0.00E+00 ir: 8.01E-01 iu: 0.00E+00 rsn:   0
  1 2r: 2.53E+00 2x: 1.67E+08 2u: 9.11E+05 ir: 1.46E-01 iu: 6.52E+03 rsn:   0
  2 2r: 1.45E-02 2x: 1.67E+08 2u: 1.09E+04 ir: 3.03E-03 iu: 4.10E+02 rsn:   0
  3 2r: 1.09E-04 2x: 1.67E+08 2u: 1.28E+03 ir: 2.89E-05 iu: 2.26E+02 rsn:   0
  4 2r: 7.96E-08 2x: 1.67E+08 2u: 2.78E+01 ir: 4.01E-08 iu: 1.24E+01 rsn: rtol

 Step    151 Time=  9.60000E+00 Dt=  1.00000E-01 [y] conv_reason: 3
  newton =   4 [     612] linear =   285 [     40547] cuts =  0 [   0]
  --> SNES Linear/Non-Linear Iterations = 285 / 4
  --> SNES Residual: 0.795970E-07 0.780363E-12 0.400524E-07
  --> max change: dpmx=   6.5196E+03

== REACTIVE TRANSPORT ==========================================================
  0 2r: 1.62E+00 2x: 0.00E+00 2u: 0.00E+00 ir: 1.23E-01 iu: 0.00E+00 rsn:   0
  1 2r: 2.58E-06 2x: 2.25E+02 2u: 1.32E+00 ir: 2.27E-06 iu: 4.32E-02 rsn:   0
  2 2r: 1.39E-11 2x: 2.25E+02 2u: 1.41E-07 ir: 1.11E-11 iu: 3.23E-08 rsn: rtol

 Step    169 Time=  9.60000E+00 Dt=  1.00000E-01 [y] conv_reason: 3
  newton =   2 [     327] linear =     7 [       949] cuts =  0 [   0]
  --> SNES Linear/Non-Linear Iterations = 7 / 2
  --> SNES Residual: 0.138660E-10 0.138660E-10 0.111129E-10
  --> max change:  dcmx=   4.3230E-02  dc/dt=   1.3708E-08 [mol/s]

== RICHARDS FLOW ===============================================================
  0 2r: 9.50E-02 2x: 0.00E+00 2u: 0.00E+00 ir: 7.15E-03 iu: 0.00E+00 rsn:   0
  1 2r: 8.85E-02 2x: 1.67E+08 2u: 2.25E+05 ir: 1.52E-02 iu: 1.57E+03 rsn:   0
  2 2r: 8.54E-04 2x: 1.67E+08 2u: 5.46E+03 ir: 1.31E-04 iu: 5.30E+02 rsn:   0
  3 2r: 1.17E-06 2x: 1.67E+08 2u: 1.80E+02 ir: 2.00E-07 iu: 2.97E+01 rsn:   0
  4 2r: 1.51E-09 2x: 1.67E+08 2u: 1.59E+00 ir: 6.17E-10 iu: 1.05E-01 rsn: itol_upd

 Step    152 Time=  9.70000E+00 Dt=  1.00000E-01 [y] conv_reason: 11
  newton =   4 [     616] linear =   277 [     40824] cuts =  0 [   0]
  --> SNES Linear/Non-Linear Iterations = 277 / 4
  --> SNES Residual: 0.150558E-08 0.147606E-13 0.616881E-09
  --> max change: dpmx=   1.4883E+03

== REACTIVE TRANSPORT ==========================================================
  0 2r: 1.38E+00 2x: 0.00E+00 2u: 0.00E+00 ir: 4.62E-02 iu: 0.00E+00 rsn:   0
  1 2r: 1.65E-04 2x: 2.26E+02 2u: 1.24E+00 ir: 8.16E-05 iu: 3.03E-02 rsn:   0
  2 2r: 1.28E-10 2x: 2.26E+02 2u: 1.21E-05 ir: 9.98E-11 iu: 4.44E-06 rsn: rtol

 Step    170 Time=  9.70000E+00 Dt=  1.00000E-01 [y] conv_reason: 3
  newton =   2 [     329] linear =     7 [       956] cuts =  0 [   0]
  --> SNES Linear/Non-Linear Iterations = 7 / 2
  --> SNES Residual: 0.128110E-09 0.128110E-09 0.998455E-10
  --> max change:  dcmx=   3.0308E-02  dc/dt=   9.6105E-09 [mol/s]

== RICHARDS FLOW ===============================================================
  0 2r: 4.49E-02 2x: 0.00E+00 2u: 0.00E+00 ir: 1.93E-03 iu: 0.00E+00 rsn:   0
  1 2r: 1.19E-02 2x: 1.68E+08 2u: 7.54E+04 ir: 3.48E-03 iu: 4.80E+02 rsn:   0
  2 2r: 1.25E-05 2x: 1.68E+08 2u: 5.42E+02 ir: 4.58E-06 iu: 1.33E+01 rsn:   0
  3 2r: 7.31E-10 2x: 1.68E+08 2u: 5.64E-01 ir: 3.14E-10 iu: 1.87E-02 rsn: itol_upd

 Step    153 Time=  9.75000E+00 Dt=  5.00000E-02 [y] conv_reason: 11
  newton =   3 [     619] linear =   185 [     41009] cuts =  0 [   0]
  --> SNES Linear/Non-Linear Iterations = 185 / 3
  --> SNES Residual: 0.731069E-09 0.716734E-14 0.313641E-09
  --> max change: dpmx=   4.7261E+02

== REACTIVE TRANSPORT ==========================================================
  0 2r: 1.27E+00 2x: 0.00E+00 2u: 0.00E+00 ir: 2.98E-02 iu: 0.00E+00 rsn:   0
  1 2r: 1.40E-05 2x: 2.26E+02 2u: 6.16E-01 ir: 6.48E-06 iu: 1.34E-02 rsn:   0
  2 2r: 5.38E-12 2x: 2.26E+02 2u: 2.99E-07 ir: 2.64E-12 iu: 1.40E-07 rsn: rtol

 Step    171 Time=  9.75000E+00 Dt=  5.00000E-02 [y] conv_reason: 3
  newton =   2 [     331] linear =     6 [       962] cuts =  0 [   0]
  --> SNES Linear/Non-Linear Iterations = 6 / 2
  --> SNES Residual: 0.537972E-11 0.537972E-11 0.264322E-11
  --> max change:  dcmx=   1.3407E-02  dc/dt=   8.5024E-09 [mol/s]

 --> appending to hdf5 output file: 3D_solute.h5
      0.15 Seconds to write HDF5 file.
 --> write tecplot output file: 3D_solute-039.tec
 --> write tecplot velocity output file: 3D_solute-vel-039.tec
      3.23 Seconds to write to Tecplot file(s)

== RICHARDS FLOW ===============================================================
  0 2r: 3.08E-02 2x: 0.00E+00 2u: 0.00E+00 ir: 1.22E-03 iu: 0.00E+00 rsn:   0
  1 2r: 1.32E-02 2x: 1.68E+08 2u: 8.37E+04 ir: 3.87E-03 iu: 5.26E+02 rsn:   0
  2 2r: 1.39E-05 2x: 1.68E+08 2u: 5.70E+02 ir: 5.23E-06 iu: 1.49E+01 rsn:   0
  3 2r: 7.24E-10 2x: 1.68E+08 2u: 9.66E-01 ir: 2.69E-10 iu: 1.49E-02 rsn: itol_upd

 Step    154 Time=  9.85000E+00 Dt=  1.00000E-01 [y] conv_reason: 11
  newton =   3 [     622] linear =   198 [     41207] cuts =  0 [   0]
  --> SNES Linear/Non-Linear Iterations = 198 / 3
  --> SNES Residual: 0.723721E-09 0.709530E-14 0.268797E-09
  --> max change: dpmx=   5.1569E+02

== REACTIVE TRANSPORT ==========================================================
  0 2r: 1.29E+00 2x: 0.00E+00 2u: 0.00E+00 ir: 3.01E-02 iu: 0.00E+00 rsn:   0
  1 2r: 2.66E-04 2x: 2.27E+02 2u: 1.20E+00 ir: 1.17E-04 iu: 1.97E-02 rsn:   0
  2 2r: 1.17E-10 2x: 2.27E+02 2u: 9.70E-06 ir: 8.68E-11 iu: 2.04E-06 rsn: rtol

 Step    172 Time=  9.85000E+00 Dt=  1.00000E-01 [y] conv_reason: 3
  newton =   2 [     333] linear =     7 [       969] cuts =  0 [   0]
  --> SNES Linear/Non-Linear Iterations = 7 / 2
  --> SNES Residual: 0.116890E-09 0.116890E-09 0.868283E-10
  --> max change:  dcmx=   1.9715E-02  dc/dt=   6.2515E-09 [mol/s]

== RICHARDS FLOW ===============================================================
  0 2r: 8.52E+00 2x: 0.00E+00 2u: 0.00E+00 ir: 4.77E-01 iu: 0.00E+00 rsn:   0
  1 2r: 3.39E-01 2x: 1.68E+08 2u: 5.11E+05 ir: 6.59E-02 iu: 3.87E+03 rsn:   0
  2 2r: 3.44E-03 2x: 1.68E+08 2u: 5.02E+03 ir: 6.48E-04 iu: 2.07E+02 rsn:   0
  3 2r: 7.74E-05 2x: 1.68E+08 2u: 3.85E+02 ir: 3.58E-05 iu: 7.96E+01 rsn:   0
  4 2r: 3.18E-08 2x: 1.68E+08 2u: 5.23E+00 ir: 1.71E-08 iu: 2.36E+00 rsn: rtol

 Step    155 Time=  9.95000E+00 Dt=  1.00000E-01 [y] conv_reason: 3
  newton =   4 [     626] linear =   295 [     41502] cuts =  0 [   0]
  --> SNES Linear/Non-Linear Iterations = 295 / 4
  --> SNES Residual: 0.318021E-07 0.311785E-12 0.171105E-07
  --> max change: dpmx=   3.8735E+03

== REACTIVE TRANSPORT ==========================================================
  0 2r: 1.27E+00 2x: 0.00E+00 2u: 0.00E+00 ir: 6.11E-02 iu: 0.00E+00 rsn:   0
  1 2r: 2.70E-04 2x: 2.27E+02 2u: 1.16E+00 ir: 2.08E-04 iu: 3.20E-02 rsn:   0
  2 2r: 9.86E-11 2x: 2.27E+02 2u: 7.00E-06 ir: 7.23E-11 iu: 2.53E-06 rsn: rtol

 Step    173 Time=  9.95000E+00 Dt=  1.00000E-01 [y] conv_reason: 3
  newton =   2 [     335] linear =     7 [       976] cuts =  0 [   0]
  --> SNES Linear/Non-Linear Iterations = 7 / 2
  --> SNES Residual: 0.986317E-10 0.986317E-10 0.723048E-10
  --> max change:  dcmx=   3.2047E-02  dc/dt=   1.0162E-08 [mol/s]

== RICHARDS FLOW ===============================================================
  0 2r: 8.52E+00 2x: 0.00E+00 2u: 0.00E+00 ir: 4.77E-01 iu: 0.00E+00 rsn:   0
  1 2r: 7.63E+00 2x: 1.68E+08 2u: 4.83E+05 ir: 2.86E-01 iu: 3.87E+03 rsn:   0
  2 2r: 3.70E-03 2x: 1.68E+08 2u: 2.15E+04 ir: 9.71E-04 iu: 9.21E+02 rsn:   0
  3 2r: 2.10E-05 2x: 1.68E+08 2u: 4.50E+02 ir: 8.81E-06 iu: 1.00E+02 rsn:   0
  4 2r: 8.96E-09 2x: 1.68E+08 2u: 8.30E+00 ir: 3.59E-09 iu: 5.50E+00 rsn: rtol

 Step    156 Time=  1.00000E+01 Dt=  5.00000E-02 [y] conv_reason: 3
  newton =   4 [     630] linear =   272 [     41774] cuts =  0 [   0]
  --> SNES Linear/Non-Linear Iterations = 272 / 4
  --> SNES Residual: 0.895669E-08 0.878106E-13 0.358818E-08
  --> max change: dpmx=   3.8647E+03

== REACTIVE TRANSPORT ==========================================================
  0 2r: 1.28E+00 2x: 0.00E+00 2u: 0.00E+00 ir: 6.11E-02 iu: 0.00E+00 rsn:   0
  1 2r: 4.58E-06 2x: 2.27E+02 2u: 6.29E-01 ir: 2.58E-06 iu: 2.21E-02 rsn:   0
  2 2r: 1.56E-13 2x: 2.27E+02 2u: 1.41E-07 ir: 5.68E-14 iu: 3.47E-08 rsn: rtol

 Step    174 Time=  1.00000E+01 Dt=  5.00000E-02 [y] conv_reason: 3
  newton =   2 [     337] linear =     7 [       983] cuts =  0 [   0]
  --> SNES Linear/Non-Linear Iterations = 7 / 2
  --> SNES Residual: 0.155968E-12 0.155968E-12 0.568434E-13
  --> max change:  dcmx=   2.2056E-02  dc/dt=   1.3988E-08 [mol/s]

 --> appending to hdf5 output file: 3D_solute.h5
      0.14 Seconds to write HDF5 file.
 --> write tecplot output file: 3D_solute-040.tec
 --> write tecplot velocity output file: 3D_solute-vel-040.tec
      4.83 Seconds to write to Tecplot file(s)
 --> Dump checkpoint file: 3D_solute-10.0000yr.chk
      Seconds to write to checkpoint file:       0.64
 --> Dump checkpoint file: 3D_solute-restart.chk
      Seconds to write to checkpoint file:       0.52

PMCSubsurfaceFlow
 Total Time: 7.4907E+02 seconds

 FLOW TS SNES steps = 156  newton = 630  linear = 41774  cuts = 0
 FLOW TS SNES Wasted Linear Iterations = 0
 FLOW TS SNES Wasted Newton Iterations = 0
 FLOW TS SNES time = 742.7 seconds

PMCSubsurfaceTransport
 Total Time: 2.0532E+02 seconds

 TRAN TS SNES steps = 174  newton = 337  linear = 983  cuts = 0
 TRAN TS SNES Wasted Linear Iterations = 0
 TRAN TS SNES Wasted Newton Iterations = 0
 TRAN TS SNES time = 190.9 seconds

 Wall Clock Time:  1.1442E+03 [sec]   1.9070E+01 [min]   3.1783E-01 [hr]
