
=================
  PFLOTRAN v6.0
=================

"grid_structured_type" set to default value.
pflotran card:: NUMERICAL_METHODS
pflotran card:: NUMERICAL_METHODS
pflotran card:: CHEMISTRY
pflotran card:: GRID
pflotran card:: FLUID_PROPERTY
"FLUID_PROPERTY,diffusion_coefficient units" set to default value.
pflotran card:: MATERIAL_PROPERTY
  Name :: soil1
pflotran card:: CHARACTERISTIC_CURVES
  Name :: default
 WARNING: Mualem-van Genuchten relative permeability function is being used without SMOOTH option.
pflotran card:: OUTPUT
"OUTPUT,FORMAT,HDF5,# FILES" set to default value.
pflotran card:: TIME
pflotran card:: REGION
all
pflotran card:: REGION
west
pflotran card:: REGION
east
pflotran card:: REGION
middle
pflotran card:: OBSERVATION
pflotran card:: FLOW_CONDITION
initial
pflotran card:: FLOW_CONDITION
inlet
pflotran card:: FLOW_CONDITION
outlet
pflotran card:: TRANSPORT_CONDITION
initial
pflotran card:: TRANSPORT_CONDITION
inlet
pflotran card:: CONSTRAINT
initial
Constraint Species: Tracer
pflotran card:: CONSTRAINT
inlet
Constraint Species: Tracer
pflotran card:: INITIAL_CONDITION
"Initial Condition name" set to default value.
pflotran card:: BOUNDARY_CONDITION
pflotran card:: BOUNDARY_CONDITION
pflotran card:: STRATA
pflotran card:: END_SUBSURFACE
--------------------------------------------------------------------------------

     1  Primary Species

              Tracer              

     0  Secondary Complex Species



     0  Active Gas Species



     0  Passive Gas Species



     0  Reference Minerals



     0  Kinetic Mineral Reactions



     0  Ion Exchange Reactions

     0  Ion Exchange Cations
--------------------------------------------------------------------------------

Extent of Gridded Domain
 X: 0.000000E+00 - 4.000000E+01
 Y: 0.000000E+00 - 1.000000E+00
 Z: 0.000000E+00 - 1.000000E+00

Size of Gridded Domain
 Number of grid cells: 100

Number of active grid cells: 100
Number of inactive grid cells: 0

  Setting up TRAN Realization
  Finished setting up TRAN Realization

=+=+=+=+=+=+=+=+=+=+=+=+=+=+=+=+=+=+=+=+=+=+=+=+=+=+=+=+=+=+=+=+=+=+=+=+=+=+=+=+

  Initial Condition

--------------------------------------------------------------------------------
          Flow Condition:   initial
     Transport Condition:   initial
                  Region:   all
--------------------------------------------------------------------------------

  Flow Condition: initial
    Synchronize time with update: no
    Time units: yr
    Length units: m
      Datum:
        Dataset: Unnamed Ascii Dataset
          Type: dataset_ascii_type
          Transient: no
          Array Rank:  3

    Sub Condition: pressure
      Type: hydrostatic
      Gradient:
        Dataset: Unnamed Ascii Dataset
          Type: dataset_ascii_type
          Transient: no
          Array Rank:  3
      Data:
        Dataset: Unnamed Ascii Dataset
          Type: dataset_ascii_type
          Transient: no
          Array Rank:  1

--------------------------------------------------------------------------------

  Transport Condition: initial

  Constraint: initial

  species       molality
  Tracer        1.0028E-20


--------------------------------------------------------------------------------

=+=+=+=+=+=+=+=+=+=+=+=+=+=+=+=+=+=+=+=+=+=+=+=+=+=+=+=+=+=+=+=+=+=+=+=+=+=+=+=+

  Boundary Condition

--------------------------------------------------------------------------------
          Flow Condition:   inlet
     Transport Condition:   inlet
                  Region:   west
--------------------------------------------------------------------------------

  Flow Condition: inlet
    Synchronize time with update: no
    Time units: yr
    Length units: m
      Datum:
        Dataset: Unnamed Ascii Dataset
          Type: dataset_ascii_type
          Transient: no
          Array Rank:  3

    Sub Condition: pressure
      Type: hydrostatic
      Gradient:
      Data:
        Dataset: Unnamed Ascii Dataset
          Type: dataset_ascii_type
          Transient: no
          Array Rank:  1

--------------------------------------------------------------------------------

  Transport Condition: inlet

  Constraint: inlet

  species       molality
  Tracer        1.0028E+00


--------------------------------------------------------------------------------

=+=+=+=+=+=+=+=+=+=+=+=+=+=+=+=+=+=+=+=+=+=+=+=+=+=+=+=+=+=+=+=+=+=+=+=+=+=+=+=+

  Boundary Condition

--------------------------------------------------------------------------------
          Flow Condition:   outlet
     Transport Condition:   initial
                  Region:   east
--------------------------------------------------------------------------------

  Flow Condition: outlet
    Synchronize time with update: no
    Time units: yr
    Length units: m
      Datum:
        Dataset: Unnamed Ascii Dataset
          Type: dataset_ascii_type
          Transient: no
          Array Rank:  3

    Sub Condition: pressure
      Type: hydrostatic
      Gradient:
      Data:
        Dataset: Unnamed Ascii Dataset
          Type: dataset_ascii_type
          Transient: no
          Array Rank:  1

--------------------------------------------------------------------------------

  Transport Condition: initial

  Constraint: initial

  species       molality
  Tracer        1.0028E-20


--------------------------------------------------------------------------------
Default HDF5 method is used in Initialization
  Beginning setup of FLOW SNES
 number of dofs =   1, number of phases =   1
 mode = Richards: p
  Finished setting up FLOW SNES
mode = Reactive Transport
  Beginning setup of TRAN SNES
  Finished setting up TRAN SNES

 Requested processors and decomposition =     1, npx,y,z=   -1  -1  -1
 Actual decomposition: npx,y,z=    1   1   1


FLOW Time Stepper SNES
      maximum number of steps: 999999
constant time steps threshold: 5
       maximum number of cuts: 16
             reduction factor: 5.000000E-01
        maximum growth factor: 2.000000E+00
                 acceleration: on
       acceleration threshold: 5
       number of ramp entries: 5
                ramp entry #1: 2.0000
                ramp entry #2: 2.0000
                ramp entry #3: 2.0000
                ramp entry #4: 2.0000
                ramp entry #5: 2.0000
                ramp entry #6: 1.8000
                ramp entry #7: 1.6000
                ramp entry #8: 1.4000
                ramp entry #9: 1.2000
               ramp entry #10: 1.0000
               ramp entry #11: 1.0000
               ramp entry #12: 1.0000
               ramp entry #13: 1.0000

FLOW Newton Solver
                         atol: 1.000000E-50
                         rtol: 1.000000E-08
                         stol: 1.000000E-08
                         dtol: 1.000000E+04
                      maxnorm: 1.000000E+20
                    inftolres: -9.990000E+02
                    inftolupd: -9.990000E+02
                 inftolrelupd: -9.990000E+02
                 inftolsclres: -9.990000E+02
                     max iter: 50
                     min iter: 1
                         maxf: 10000
                  matrix type: baij
         precond. matrix type: baij
               inexact newton: off
            print convergence: on
   print detailed convergence: off
          check infinity norm: on

FLOW Linear Solver
                       solver: bcgs
               preconditioner: ilu
                         atol: 1.000000E-50
                         rtol: 1.000000E-05
                         dtol: 1.000000E+04
            maximum iteration: 10000

TRAN Time Stepper SNES
      maximum number of steps: 999999
constant time steps threshold: 5
       maximum number of cuts: 16
             reduction factor: 5.000000E-01
        maximum growth factor: 2.000000E+00
                 acceleration: on
       acceleration threshold: 5
       number of ramp entries: 5
                ramp entry #1: 2.0000
                ramp entry #2: 2.0000
                ramp entry #3: 2.0000
                ramp entry #4: 2.0000
                ramp entry #5: 2.0000
                ramp entry #6: 1.8000
                ramp entry #7: 1.6000
                ramp entry #8: 1.4000
                ramp entry #9: 1.2000
               ramp entry #10: 1.0000
               ramp entry #11: 1.0000
               ramp entry #12: 1.0000
               ramp entry #13: 1.0000

TRAN Newton Solver
                         atol: 1.000000E-50
                         rtol: 1.000000E-08
                         stol: 1.000000E-08
                         dtol: 1.000000E+04
                      maxnorm: 1.000000E+20
                    inftolres: -9.990000E+02
                    inftolupd: -9.990000E+02
                 inftolrelupd: -9.990000E+02
                 inftolsclres: -9.990000E+02
                     max iter: 50
                     min iter: 1
                         maxf: 10000
                  matrix type: baij
         precond. matrix type: baij
               inexact newton: off
            print convergence: on
   print detailed convergence: off
          check infinity norm: on

TRAN Linear Solver
                       solver: bcgs
               preconditioner: ilu
                         atol: 1.000000E-50
                         rtol: 1.000000E-05
                         dtol: 1.000000E+04
            maximum iteration: 10000

 Finished Initialization


== RICHARDS FLOW ===============================================================
  0 2r: 2.68E-06 2x: 0.00E+00 2u: 0.00E+00 ir: 2.68E-06 iu: 0.00E+00 rsn:   0
  1 2r: 2.72E-15 2x: 1.26E+06 2u: 1.80E+00 ir: 6.66E-16 iu: 4.26E-01 rsn: rtol

 Step      1 Time=  4.16667E-05 Dt=  4.16667E-05 [d] conv_reason: 3
  newton =   1 [       1] linear =     1 [         1] cuts =  0 [   0]
  --> SNES Linear/Non-Linear Iterations = 1 / 1
  --> SNES Residual: 0.271948E-14 0.271948E-16 0.666134E-15
  --> max change: dpmx=   4.2592E-01

== REACTIVE TRANSPORT ==========================================================
  0 2r: 4.61E-01 2x: 0.00E+00 2u: 0.00E+00 ir: 4.61E-01 iu: 0.00E+00 rsn:   0
  1 2r: 5.55E-17 2x: 1.63E-02 2u: 1.63E-02 ir: 5.55E-17 iu: 1.63E-02 rsn: rtol

 Step      1 Time=  4.16667E-05 Dt=  4.16667E-05 [d] conv_reason: 3
  newton =   1 [       1] linear =     1 [         1] cuts =  0 [   0]
  --> SNES Linear/Non-Linear Iterations = 1 / 1
  --> SNES Residual: 0.555128E-16 0.555128E-16 0.555112E-16
  --> max change:  dcmx=   1.6255E-02  dc/dt=   4.5152E-03 [mol/s]
 Maximum Pore Velocity:   7.5911E+00 [m/d]

== RICHARDS FLOW ===============================================================
  0 2r: 1.25E-09 2x: 0.00E+00 2u: 0.00E+00 ir: 2.95E-10 iu: 0.00E+00 rsn:   0
  1 2r: 1.64E-15 2x: 1.26E+06 2u: 2.08E-01 ir: 4.44E-16 iu: 2.97E-02 rsn:   0
  2 2r: 7.20E-16 2x: 1.26E+06 2u: 2.66E-08 ir: 1.11E-16 iu: 5.34E-09 rsn: stol

 Step      2 Time=  1.25000E-04 Dt=  8.33333E-05 [d] conv_reason: 4
  newton =   2 [       3] linear =     2 [         3] cuts =  0 [   0]
  --> SNES Linear/Non-Linear Iterations = 2 / 2
  --> SNES Residual: 0.719507E-15 0.719507E-17 0.111022E-15
  --> max change: dpmx=   2.9739E-02

== REACTIVE TRANSPORT ==========================================================
  0 2r: 4.50E-01 2x: 0.00E+00 2u: 0.00E+00 ir: 4.50E-01 iu: 0.00E+00 rsn:   0
  1 2r: 8.47E-22 2x: 4.73E-02 2u: 3.10E-02 ir: 8.47E-22 iu: 3.10E-02 rsn: rtol

 Step      2 Time=  1.25000E-04 Dt=  8.33333E-05 [d] conv_reason: 3
  newton =   1 [       2] linear =     1 [         2] cuts =  0 [   0]
  --> SNES Linear/Non-Linear Iterations = 1 / 1
  --> SNES Residual: 0.847137E-21 0.847137E-21 0.847033E-21
  --> max change:  dcmx=   3.1002E-02  dc/dt=   4.3059E-03 [mol/s]
 Maximum Pore Velocity:   7.5911E+00 [m/d]

== RICHARDS FLOW ===============================================================
  0 2r: 7.20E-11 2x: 0.00E+00 2u: 0.00E+00 ir: 1.03E-11 iu: 0.00E+00 rsn:   0
  1 2r: 8.20E-16 2x: 1.26E+06 2u: 2.15E-02 ir: 2.22E-16 iu: 3.03E-03 rsn:   0
  2 2r: 5.00E-16 2x: 1.26E+06 2u: 7.21E-09 ir: 1.11E-16 iu: 1.46E-09 rsn: stol

 Step      3 Time=  2.91667E-04 Dt=  1.66667E-04 [d] conv_reason: 4
  newton =   2 [       5] linear =     2 [         5] cuts =  0 [   0]
  --> SNES Linear/Non-Linear Iterations = 2 / 2
  --> SNES Residual: 0.499600E-15 0.499600E-17 0.111022E-15
  --> max change: dpmx=   3.0349E-03

== REACTIVE TRANSPORT ==========================================================
  0 2r: 4.30E-01 2x: 0.00E+00 2u: 0.00E+00 ir: 4.29E-01 iu: 0.00E+00 rsn:   0
  1 2r: 2.22E-16 2x: 1.04E-01 2u: 5.67E-02 ir: 2.22E-16 iu: 5.66E-02 rsn: rtol

 Step      3 Time=  2.91667E-04 Dt=  1.66667E-04 [d] conv_reason: 3
  newton =   1 [       3] linear =     1 [         3] cuts =  0 [   0]
  --> SNES Linear/Non-Linear Iterations = 1 / 1
  --> SNES Residual: 0.222072E-15 0.222072E-15 0.222045E-15
  --> max change:  dcmx=   5.6564E-02  dc/dt=   3.9281E-03 [mol/s]
 Maximum Pore Velocity:   7.5911E+00 [m/d]

== RICHARDS FLOW ===============================================================
  0 2r: 3.73E-12 2x: 0.00E+00 2u: 0.00E+00 ir: 5.26E-13 iu: 0.00E+00 rsn:   0
  1 2r: 6.09E-16 2x: 1.26E+06 2u: 1.18E-03 ir: 1.67E-16 iu: 1.67E-04 rsn: stol

 Step      4 Time=  6.25000E-04 Dt=  3.33333E-04 [d] conv_reason: 4
  newton =   1 [       6] linear =     1 [         6] cuts =  0 [   0]
  --> SNES Linear/Non-Linear Iterations = 1 / 1
  --> SNES Residual: 0.609360E-15 0.609360E-17 0.166533E-15
  --> max change: dpmx=   1.6671E-04

== REACTIVE TRANSPORT ==========================================================
  0 2r: 3.92E-01 2x: 0.00E+00 2u: 0.00E+00 ir: 3.92E-01 iu: 0.00E+00 rsn:   0
  1 2r: 6.99E-18 2x: 2.00E-01 2u: 9.59E-02 ir: 6.94E-18 iu: 9.52E-02 rsn: rtol

 Step      4 Time=  6.25000E-04 Dt=  3.33333E-04 [d] conv_reason: 3
  newton =   1 [       4] linear =     1 [         4] cuts =  0 [   0]
  --> SNES Linear/Non-Linear Iterations = 1 / 1
  --> SNES Residual: 0.699289E-17 0.699289E-17 0.693889E-17
  --> max change:  dcmx=   9.5204E-02  dc/dt=   3.3057E-03 [mol/s]
 Maximum Pore Velocity:   7.5911E+00 [m/d]

== RICHARDS FLOW ===============================================================
  0 2r: 1.02E-13 2x: 0.00E+00 2u: 0.00E+00 ir: 1.45E-14 iu: 0.00E+00 rsn:   0
  1 2r: 5.31E-16 2x: 1.26E+06 2u: 3.29E-05 ir: 1.25E-16 iu: 4.65E-06 rsn: stol

 Step      5 Time=  1.29167E-03 Dt=  6.66667E-04 [d] conv_reason: 4
  newton =   1 [       7] linear =     1 [         7] cuts =  0 [   0]
  --> SNES Linear/Non-Linear Iterations = 1 / 1
  --> SNES Residual: 0.530995E-15 0.530995E-17 0.124900E-15
  --> max change: dpmx=   4.6458E-06

== REACTIVE TRANSPORT ==========================================================
  0 2r: 3.32E-01 2x: 0.00E+00 2u: 0.00E+00 ir: 3.30E-01 iu: 0.00E+00 rsn:   0
  1 2r: 1.19E-16 2x: 3.43E-01 2u: 1.44E-01 ir: 1.11E-16 iu: 1.40E-01 rsn: rtol

 Step      5 Time=  1.29167E-03 Dt=  6.66667E-04 [d] conv_reason: 3
  newton =   1 [       5] linear =     1 [         5] cuts =  0 [   0]
  --> SNES Linear/Non-Linear Iterations = 1 / 1
  --> SNES Residual: 0.118572E-15 0.118572E-15 0.111022E-15
  --> max change:  dcmx=   1.3991E-01  dc/dt=   2.4290E-03 [mol/s]
 Maximum Pore Velocity:   7.5911E+00 [m/d]

== RICHARDS FLOW ===============================================================
  0 2r: 1.51E-15 2x: 0.00E+00 2u: 0.00E+00 ir: 3.05E-16 iu: 0.00E+00 rsn:   0
  1 2r: 4.11E-16 2x: 1.26E+06 2u: 4.61E-07 ir: 1.32E-16 iu: 6.52E-08 rsn: stol

 Step      6 Time=  2.62500E-03 Dt=  1.33333E-03 [d] conv_reason: 4
  newton =   1 [       8] linear =     1 [         8] cuts =  0 [   0]
  --> SNES Linear/Non-Linear Iterations = 1 / 1
  --> SNES Residual: 0.411331E-15 0.411331E-17 0.131839E-15
  --> max change: dpmx=   6.5163E-08

== REACTIVE TRANSPORT ==========================================================
  0 2r: 2.50E-01 2x: 0.00E+00 2u: 0.00E+00 ir: 2.42E-01 iu: 0.00E+00 rsn:   0
  1 2r: 2.80E-17 2x: 5.24E-01 2u: 1.87E-01 ir: 2.78E-17 iu: 1.68E-01 rsn: rtol

 Step      6 Time=  2.62500E-03 Dt=  1.33333E-03 [d] conv_reason: 3
  newton =   1 [       6] linear =     1 [         6] cuts =  0 [   0]
  --> SNES Linear/Non-Linear Iterations = 1 / 1
  --> SNES Residual: 0.280253E-16 0.280253E-16 0.277556E-16
  --> max change:  dcmx=   1.6807E-01  dc/dt=   1.4589E-03 [mol/s]
 Maximum Pore Velocity:   7.5911E+00 [m/d]

== RICHARDS FLOW ===============================================================
  0 2r: 4.13E-16 2x: 0.00E+00 2u: 0.00E+00 ir: 1.35E-16 iu: 0.00E+00 rsn:   0
  1 2r: 5.13E-16 2x: 1.26E+06 2u: 3.18E-09 ir: 1.49E-16 iu: 4.51E-10 rsn: stol

 Step      7 Time=  5.29167E-03 Dt=  2.66667E-03 [d] conv_reason: 4
  newton =   1 [       9] linear =     1 [         9] cuts =  0 [   0]
  --> SNES Linear/Non-Linear Iterations = 1 / 1
  --> SNES Residual: 0.513279E-15 0.513279E-17 0.149186E-15
  --> max change: dpmx=   4.5111E-10

== REACTIVE TRANSPORT ==========================================================
  0 2r: 1.62E-01 2x: 0.00E+00 2u: 0.00E+00 ir: 1.45E-01 iu: 0.00E+00 rsn:   0
  1 2r: 5.73E-17 2x: 7.22E-01 2u: 2.19E-01 ir: 5.55E-17 iu: 1.57E-01 rsn: rtol

 Step      7 Time=  5.29167E-03 Dt=  2.66667E-03 [d] conv_reason: 3
  newton =   1 [       7] linear =     1 [         7] cuts =  0 [   0]
  --> SNES Linear/Non-Linear Iterations = 1 / 1
  --> SNES Residual: 0.573253E-16 0.573253E-16 0.555112E-16
  --> max change:  dcmx=   1.5748E-01  dc/dt=   6.8352E-04 [mol/s]
 Maximum Pore Velocity:   7.5911E+00 [m/d]

== RICHARDS FLOW ===============================================================
  0 2r: 5.11E-16 2x: 0.00E+00 2u: 0.00E+00 ir: 1.49E-16 iu: 0.00E+00 rsn:   0
  1 2r: 3.67E-16 2x: 1.26E+06 2u: 1.10E-10 ir: 1.34E-16 iu: 2.34E-11 rsn: stol

 Step      8 Time=  1.06250E-02 Dt=  5.33333E-03 [d] conv_reason: 4
  newton =   1 [      10] linear =     1 [        10] cuts =  0 [   0]
  --> SNES Linear/Non-Linear Iterations = 1 / 1
  --> SNES Residual: 0.367463E-15 0.367463E-17 0.133574E-15
  --> max change: dpmx=   2.9104E-11

== REACTIVE TRANSPORT ==========================================================
  0 2r: 9.47E-02 2x: 0.00E+00 2u: 0.00E+00 ir: 6.82E-02 iu: 0.00E+00 rsn:   0
  1 2r: 8.78E-17 2x: 9.27E-01 2u: 2.54E-01 ir: 8.33E-17 iu: 1.69E-01 rsn: rtol

 Step      8 Time=  1.06250E-02 Dt=  5.33333E-03 [d] conv_reason: 3
  newton =   1 [       8] linear =     1 [         8] cuts =  0 [   0]
  --> SNES Linear/Non-Linear Iterations = 1 / 1
  --> SNES Residual: 0.878339E-16 0.878339E-16 0.832667E-16
  --> max change:  dcmx=   1.6854E-01  dc/dt=   3.6575E-04 [mol/s]
 Maximum Pore Velocity:   7.5911E+00 [m/d]

== RICHARDS FLOW ===============================================================
  0 2r: 3.67E-16 2x: 0.00E+00 2u: 0.00E+00 ir: 1.34E-16 iu: 0.00E+00 rsn:   0
  1 2r: 4.65E-16 2x: 1.26E+06 2u: 3.02E-10 ir: 1.41E-16 iu: 4.82E-11 rsn: stol

 Step      9 Time=  2.12917E-02 Dt=  1.06667E-02 [d] conv_reason: 4
  newton =   1 [      11] linear =     1 [        11] cuts =  0 [   0]
  --> SNES Linear/Non-Linear Iterations = 1 / 1
  --> SNES Residual: 0.464784E-15 0.464784E-17 0.140513E-15
  --> max change: dpmx=   5.8208E-11

== REACTIVE TRANSPORT ==========================================================
  0 2r: 5.49E-02 2x: 0.00E+00 2u: 0.00E+00 ir: 3.65E-02 iu: 0.00E+00 rsn:   0
  1 2r: 4.08E-17 2x: 1.15E+00 2u: 3.05E-01 ir: 2.78E-17 iu: 1.68E-01 rsn: rtol

 Step      9 Time=  2.12917E-02 Dt=  1.06667E-02 [d] conv_reason: 3
  newton =   1 [       9] linear =     1 [         9] cuts =  0 [   0]
  --> SNES Linear/Non-Linear Iterations = 1 / 1
  --> SNES Residual: 0.408183E-16 0.408183E-16 0.277556E-16
  --> max change:  dcmx=   1.6791E-01  dc/dt=   1.8219E-04 [mol/s]
 Maximum Pore Velocity:   7.5911E+00 [m/d]

== RICHARDS FLOW ===============================================================
  0 2r: 4.65E-16 2x: 0.00E+00 2u: 0.00E+00 ir: 1.40E-16 iu: 0.00E+00 rsn:   0
  1 2r: 4.28E-16 2x: 1.26E+06 2u: 1.97E-10 ir: 1.18E-16 iu: 3.30E-11 rsn: stol

 Step     10 Time=  4.26250E-02 Dt=  2.13333E-02 [d] conv_reason: 4
  newton =   1 [      12] linear =     1 [        12] cuts =  0 [   0]
  --> SNES Linear/Non-Linear Iterations = 1 / 1
  --> SNES Residual: 0.428244E-15 0.428244E-17 0.118395E-15
  --> max change: dpmx=   2.9104E-11

== REACTIVE TRANSPORT ==========================================================
  0 2r: 3.30E-02 2x: 0.00E+00 2u: 0.00E+00 ir: 1.82E-02 iu: 0.00E+00 rsn:   0
  1 2r: 4.99E-17 2x: 1.42E+00 2u: 3.78E-01 ir: 3.82E-17 iu: 1.76E-01 rsn: rtol

 Step     10 Time=  4.26250E-02 Dt=  2.13333E-02 [d] conv_reason: 3
  newton =   1 [      10] linear =     1 [        10] cuts =  0 [   0]
  --> SNES Linear/Non-Linear Iterations = 1 / 1
  --> SNES Residual: 0.498513E-16 0.498513E-16 0.381639E-16
  --> max change:  dcmx=   1.7592E-01  dc/dt=   9.5442E-05 [mol/s]
 Maximum Pore Velocity:   7.5911E+00 [m/d]

== RICHARDS FLOW ===============================================================
  0 2r: 4.29E-16 2x: 0.00E+00 2u: 0.00E+00 ir: 1.19E-16 iu: 0.00E+00 rsn:   0
  1 2r: 4.87E-16 2x: 1.26E+06 2u: 7.34E-11 ir: 1.48E-16 iu: 1.71E-11 rsn: stol

 Step     11 Time=  8.52917E-02 Dt=  4.26667E-02 [d] conv_reason: 4
  newton =   1 [      13] linear =     1 [        13] cuts =  0 [   0]
  --> SNES Linear/Non-Linear Iterations = 1 / 1
  --> SNES Residual: 0.486615E-15 0.486615E-17 0.148319E-15
  --> max change: dpmx=   2.9104E-11

== REACTIVE TRANSPORT ==========================================================
  0 2r: 2.04E-02 2x: 0.00E+00 2u: 0.00E+00 ir: 9.52E-03 iu: 0.00E+00 rsn:   0
  1 2r: 1.28E-16 2x: 1.75E+00 2u: 4.78E-01 ir: 7.63E-17 iu: 1.86E-01 rsn: rtol

 Step     11 Time=  8.52917E-02 Dt=  4.26667E-02 [d] conv_reason: 3
  newton =   1 [      11] linear =     1 [        11] cuts =  0 [   0]
  --> SNES Linear/Non-Linear Iterations = 1 / 1
  --> SNES Residual: 0.127610E-15 0.127610E-15 0.763278E-16
  --> max change:  dcmx=   1.8617E-01  dc/dt=   5.0503E-05 [mol/s]
 Maximum Pore Velocity:   7.5911E+00 [m/d]
 CFL Limiting ( 1.0):   8.5333E-02 ->   5.2693E-02 [d]

== RICHARDS FLOW ===============================================================
  0 2r: 4.87E-16 2x: 0.00E+00 2u: 0.00E+00 ir: 1.48E-16 iu: 0.00E+00 rsn:   0
  1 2r: 4.87E-16 2x: 1.26E+06 2u: 6.12E-11 ir: 1.48E-16 iu: 1.44E-11 rsn: stol

 Step     12 Time=  1.70625E-01 Dt=  8.53333E-02 [d] conv_reason: 4
  newton =   1 [      14] linear =     1 [        14] cuts =  0 [   0]
  --> SNES Linear/Non-Linear Iterations = 1 / 1
  --> SNES Residual: 0.486615E-15 0.486615E-17 0.148319E-15
  --> max change: dpmx=   0.0000E+00

== REACTIVE TRANSPORT ==========================================================
  0 2r: 1.29E-02 2x: 0.00E+00 2u: 0.00E+00 ir: 5.04E-03 iu: 0.00E+00 rsn:   0
  1 2r: 1.22E-16 2x: 2.04E+00 2u: 4.29E-01 ir: 6.94E-17 iu: 1.45E-01 rsn: rtol

 Step     12 Time=  1.37985E-01 Dt=  5.26933E-02 [d] conv_reason: 3
  newton =   1 [      12] linear =     1 [        12] cuts =  0 [   0]
  --> SNES Linear/Non-Linear Iterations = 1 / 1
  --> SNES Residual: 0.121724E-15 0.121724E-15 0.693889E-16
  --> max change:  dcmx=   1.4462E-01  dc/dt=   3.1765E-05 [mol/s]
 Maximum Pore Velocity:   7.5911E+00 [m/d]
 CFL Limiting ( 1.0):   1.0539E-01 ->   5.2693E-02 [d]

== REACTIVE TRANSPORT ==========================================================
  0 2r: 9.40E-03 2x: 0.00E+00 2u: 0.00E+00 ir: 3.17E-03 iu: 0.00E+00 rsn:   0
  1 2r: 1.16E-16 2x: 2.21E+00 2u: 2.30E-01 ir: 6.25E-17 iu: 7.21E-02 rsn: rtol

 Step     13 Time=  1.70625E-01 Dt=  3.26400E-02 [d] conv_reason: 3
  newton =   1 [      13] linear =     1 [        13] cuts =  0 [   0]
  --> SNES Linear/Non-Linear Iterations = 1 / 1
  --> SNES Residual: 0.115887E-15 0.115887E-15 0.624500E-16
  --> max change:  dcmx=   7.2132E-02  dc/dt=   2.5578E-05 [mol/s]
 Maximum Pore Velocity:   7.5911E+00 [m/d]
 CFL Limiting ( 1.0):   6.5280E-02 ->   5.2693E-02 [d]

== RICHARDS FLOW ===============================================================
  0 2r: 4.87E-16 2x: 0.00E+00 2u: 0.00E+00 ir: 1.48E-16 iu: 0.00E+00 rsn:   0
  1 2r: 4.87E-16 2x: 1.26E+06 2u: 6.12E-11 ir: 1.48E-16 iu: 1.44E-11 rsn: stol

 Step     13 Time=  3.41292E-01 Dt=  1.70667E-01 [d] conv_reason: 4
  newton =   1 [      15] linear =     1 [        15] cuts =  0 [   0]
  --> SNES Linear/Non-Linear Iterations = 1 / 1
  --> SNES Residual: 0.486615E-15 0.486615E-17 0.148319E-15
  --> max change: dpmx=   0.0000E+00

== REACTIVE TRANSPORT ==========================================================
  0 2r: 8.14E-03 2x: 0.00E+00 2u: 0.00E+00 ir: 2.55E-03 iu: 0.00E+00 rsn:   0
  1 2r: 1.12E-16 2x: 2.42E+00 2u: 3.15E-01 ir: 6.94E-17 iu: 9.11E-02 rsn: rtol

 Step     14 Time=  2.23318E-01 Dt=  5.26933E-02 [d] conv_reason: 3
  newton =   1 [      14] linear =     1 [        14] cuts =  0 [   0]
  --> SNES Linear/Non-Linear Iterations = 1 / 1
  --> SNES Residual: 0.112392E-15 0.112392E-15 0.693889E-16
  --> max change:  dcmx=   9.1068E-02  dc/dt=   2.0003E-05 [mol/s]
 Maximum Pore Velocity:   7.5911E+00 [m/d]
 CFL Limiting ( 1.0):   1.0539E-01 ->   5.2693E-02 [d]

== REACTIVE TRANSPORT ==========================================================
  0 2r: 6.90E-03 2x: 0.00E+00 2u: 0.00E+00 ir: 1.99E-03 iu: 0.00E+00 rsn:   0
  1 2r: 1.09E-16 2x: 2.61E+00 2u: 2.78E-01 ir: 6.59E-17 iu: 7.53E-02 rsn: rtol

 Step     15 Time=  2.76012E-01 Dt=  5.26933E-02 [d] conv_reason: 3
  newton =   1 [      15] linear =     1 [        15] cuts =  0 [   0]
  --> SNES Linear/Non-Linear Iterations = 1 / 1
  --> SNES Residual: 0.108623E-15 0.108623E-15 0.659195E-16
  --> max change:  dcmx=   7.5291E-02  dc/dt=   1.6538E-05 [mol/s]
 Maximum Pore Velocity:   7.5911E+00 [m/d]
 CFL Limiting ( 1.0):   1.0539E-01 ->   5.2693E-02 [d]

== REACTIVE TRANSPORT ==========================================================
  0 2r: 6.09E-03 2x: 0.00E+00 2u: 0.00E+00 ir: 1.65E-03 iu: 0.00E+00 rsn:   0
  1 2r: 1.28E-16 2x: 2.78E+00 2u: 2.52E-01 ir: 7.81E-17 iu: 6.47E-02 rsn: rtol

 Step     16 Time=  3.28705E-01 Dt=  5.26933E-02 [d] conv_reason: 3
  newton =   1 [      16] linear =     1 [        16] cuts =  0 [   0]
  --> SNES Linear/Non-Linear Iterations = 1 / 1
  --> SNES Residual: 0.128211E-15 0.128211E-15 0.780626E-16
  --> max change:  dcmx=   6.4702E-02  dc/dt=   1.4212E-05 [mol/s]
 Maximum Pore Velocity:   7.5911E+00 [m/d]
 CFL Limiting ( 1.0):   1.0539E-01 ->   5.2693E-02 [d]

== REACTIVE TRANSPORT ==========================================================
  0 2r: 5.52E-03 2x: 0.00E+00 2u: 0.00E+00 ir: 1.42E-03 iu: 0.00E+00 rsn:   0
  1 2r: 1.64E-16 2x: 2.82E+00 2u: 5.89E-02 ir: 8.33E-17 iu: 1.50E-02 rsn: rtol

 Step     17 Time=  3.41292E-01 Dt=  1.25867E-02 [d] conv_reason: 3
  newton =   1 [      17] linear =     1 [        17] cuts =  0 [   0]
  --> SNES Linear/Non-Linear Iterations = 1 / 1
  --> SNES Residual: 0.164096E-15 0.164096E-15 0.832667E-16
  --> max change:  dcmx=   1.4952E-02  dc/dt=   1.3749E-05 [mol/s]
 Maximum Pore Velocity:   7.5911E+00 [m/d]

== RICHARDS FLOW ===============================================================
  0 2r: 4.87E-16 2x: 0.00E+00 2u: 0.00E+00 ir: 1.48E-16 iu: 0.00E+00 rsn:   0
  1 2r: 4.87E-16 2x: 1.26E+06 2u: 6.12E-11 ir: 1.48E-16 iu: 1.44E-11 rsn: stol

 Step     14 Time=  6.82625E-01 Dt=  3.41333E-01 [d] conv_reason: 4
  newton =   1 [      16] linear =     1 [        16] cuts =  0 [   0]
  --> SNES Linear/Non-Linear Iterations = 1 / 1
  --> SNES Residual: 0.486615E-15 0.486615E-17 0.148319E-15
  --> max change: dpmx=   0.0000E+00

== REACTIVE TRANSPORT ==========================================================
  0 2r: 5.40E-03 2x: 0.00E+00 2u: 0.00E+00 ir: 1.37E-03 iu: 0.00E+00 rsn:   0
  1 2r: 1.42E-16 2x: 2.98E+00 2u: 2.28E-01 ir: 6.59E-17 iu: 5.55E-02 rsn: rtol

 Step     18 Time=  3.93985E-01 Dt=  5.26933E-02 [d] conv_reason: 3
  newton =   1 [      18] linear =     1 [        18] cuts =  0 [   0]
  --> SNES Linear/Non-Linear Iterations = 1 / 1
  --> SNES Residual: 0.141540E-15 0.141540E-15 0.659195E-16
  --> max change:  dcmx=   5.5498E-02  dc/dt=   1.2190E-05 [mol/s]
 Maximum Pore Velocity:   7.5911E+00 [m/d]
 CFL Limiting ( 1.0):   1.0539E-01 ->   5.2693E-02 [d]

== REACTIVE TRANSPORT ==========================================================
  0 2r: 5.00E-03 2x: 0.00E+00 2u: 0.00E+00 ir: 1.22E-03 iu: 0.00E+00 rsn:   0
  1 2r: 1.65E-16 2x: 3.12E+00 2u: 2.14E-01 ir: 6.94E-17 iu: 5.00E-02 rsn: rtol

 Step     19 Time=  4.46678E-01 Dt=  5.26933E-02 [d] conv_reason: 3
  newton =   1 [      19] linear =     1 [        19] cuts =  0 [   0]
  --> SNES Linear/Non-Linear Iterations = 1 / 1
  --> SNES Residual: 0.165326E-15 0.165326E-15 0.693889E-16
  --> max change:  dcmx=   5.0030E-02  dc/dt=   1.0989E-05 [mol/s]
 Maximum Pore Velocity:   7.5911E+00 [m/d]
 CFL Limiting ( 1.0):   1.0539E-01 ->   5.2693E-02 [d]

== REACTIVE TRANSPORT ==========================================================
  0 2r: 4.68E-03 2x: 0.00E+00 2u: 0.00E+00 ir: 1.10E-03 iu: 0.00E+00 rsn:   0
  1 2r: 1.80E-16 2x: 3.26E+00 2u: 2.02E-01 ir: 9.02E-17 iu: 4.57E-02 rsn: rtol

 Step     20 Time=  4.99372E-01 Dt=  5.26933E-02 [d] conv_reason: 3
  newton =   1 [      20] linear =     1 [        20] cuts =  0 [   0]
  --> SNES Linear/Non-Linear Iterations = 1 / 1
  --> SNES Residual: 0.179543E-15 0.179543E-15 0.902056E-16
  --> max change:  dcmx=   4.5744E-02  dc/dt=   1.0048E-05 [mol/s]
 Maximum Pore Velocity:   7.5911E+00 [m/d]
 CFL Limiting ( 1.0):   1.0539E-01 ->   5.2693E-02 [d]

== REACTIVE TRANSPORT ==========================================================
  0 2r: 4.42E-03 2x: 0.00E+00 2u: 0.00E+00 ir: 1.00E-03 iu: 0.00E+00 rsn:   0
  1 2r: 1.70E-16 2x: 3.39E+00 2u: 1.92E-01 ir: 9.71E-17 iu: 4.22E-02 rsn: rtol

 Step     21 Time=  5.52065E-01 Dt=  5.26933E-02 [d] conv_reason: 3
  newton =   1 [      21] linear =     1 [        21] cuts =  0 [   0]
  --> SNES Linear/Non-Linear Iterations = 1 / 1
  --> SNES Residual: 0.169670E-15 0.169670E-15 0.971445E-16
  --> max change:  dcmx=   4.2212E-02  dc/dt=   9.2718E-06 [mol/s]
 Maximum Pore Velocity:   7.5911E+00 [m/d]
 CFL Limiting ( 1.0):   1.0539E-01 ->   5.2693E-02 [d]

== REACTIVE TRANSPORT ==========================================================
  0 2r: 4.21E-03 2x: 0.00E+00 2u: 0.00E+00 ir: 9.25E-04 iu: 0.00E+00 rsn:   0
  1 2r: 1.70E-16 2x: 3.51E+00 2u: 1.84E-01 ir: 6.59E-17 iu: 3.93E-02 rsn: rtol

 Step     22 Time=  6.04758E-01 Dt=  5.26933E-02 [d] conv_reason: 3
  newton =   1 [      22] linear =     1 [        22] cuts =  0 [   0]
  --> SNES Linear/Non-Linear Iterations = 1 / 1
  --> SNES Residual: 0.170146E-15 0.170146E-15 0.659195E-16
  --> max change:  dcmx=   3.9323E-02  dc/dt=   8.6373E-06 [mol/s]
 Maximum Pore Velocity:   7.5911E+00 [m/d]
 CFL Limiting ( 1.0):   1.0539E-01 ->   5.2693E-02 [d]

== REACTIVE TRANSPORT ==========================================================
  0 2r: 4.03E-03 2x: 0.00E+00 2u: 0.00E+00 ir: 8.61E-04 iu: 0.00E+00 rsn:   0
  1 2r: 2.01E-16 2x: 3.63E+00 2u: 1.77E-01 ir: 8.33E-17 iu: 3.69E-02 rsn: rtol

 Step     23 Time=  6.57452E-01 Dt=  5.26933E-02 [d] conv_reason: 3
  newton =   1 [      23] linear =     1 [        23] cuts =  0 [   0]
  --> SNES Linear/Non-Linear Iterations = 1 / 1
  --> SNES Residual: 0.201453E-15 0.201453E-15 0.832667E-16
  --> max change:  dcmx=   3.6873E-02  dc/dt=   8.0991E-06 [mol/s]
 Maximum Pore Velocity:   7.5911E+00 [m/d]
 CFL Limiting ( 1.0):   1.0539E-01 ->   5.2693E-02 [d]

== REACTIVE TRANSPORT ==========================================================
  0 2r: 3.87E-03 2x: 0.00E+00 2u: 0.00E+00 ir: 8.08E-04 iu: 0.00E+00 rsn:   0
  1 2r: 1.97E-16 2x: 3.68E+00 2u: 8.30E-02 ir: 1.04E-16 iu: 1.71E-02 rsn: rtol

 Step     24 Time=  6.82625E-01 Dt=  2.51734E-02 [d] conv_reason: 3
  newton =   1 [      24] linear =     1 [        24] cuts =  0 [   0]
  --> SNES Linear/Non-Linear Iterations = 1 / 1
  --> SNES Residual: 0.197311E-15 0.197311E-15 0.104083E-15
  --> max change:  dcmx=   1.7115E-02  dc/dt=   7.8691E-06 [mol/s]
 Maximum Pore Velocity:   7.5911E+00 [m/d]

== RICHARDS FLOW ===============================================================
  0 2r: 4.87E-16 2x: 0.00E+00 2u: 0.00E+00 ir: 1.48E-16 iu: 0.00E+00 rsn:   0
  1 2r: 4.87E-16 2x: 1.26E+06 2u: 6.12E-11 ir: 1.48E-16 iu: 1.44E-11 rsn: stol

 Step     15 Time=  1.00000E+00 Dt=  3.17375E-01 [d] conv_reason: 4
  newton =   1 [      17] linear =     1 [        17] cuts =  0 [   0]
  --> SNES Linear/Non-Linear Iterations = 1 / 1
  --> SNES Residual: 0.486615E-15 0.486615E-17 0.148319E-15
  --> max change: dpmx=   0.0000E+00

== REACTIVE TRANSPORT ==========================================================
  0 2r: 3.80E-03 2x: 0.00E+00 2u: 0.00E+00 ir: 7.85E-04 iu: 0.00E+00 rsn:   0
  1 2r: 1.64E-16 2x: 3.79E+00 2u: 1.68E-01 ir: 7.63E-17 iu: 3.39E-02 rsn: rtol

 Step     25 Time=  7.35318E-01 Dt=  5.26933E-02 [d] conv_reason: 3
  newton =   1 [      25] linear =     1 [        25] cuts =  0 [   0]
  --> SNES Linear/Non-Linear Iterations = 1 / 1
  --> SNES Residual: 0.164066E-15 0.164066E-15 0.763278E-16
  --> max change:  dcmx=   3.3869E-02  dc/dt=   7.4394E-06 [mol/s]
 Maximum Pore Velocity:   7.5911E+00 [m/d]
 CFL Limiting ( 1.0):   1.0539E-01 ->   5.2693E-02 [d]

== REACTIVE TRANSPORT ==========================================================
  0 2r: 3.68E-03 2x: 0.00E+00 2u: 0.00E+00 ir: 7.42E-04 iu: 0.00E+00 rsn:   0
  1 2r: 2.12E-16 2x: 3.90E+00 2u: 1.63E-01 ir: 9.37E-17 iu: 3.22E-02 rsn: rtol

 Step     26 Time=  7.88012E-01 Dt=  5.26933E-02 [d] conv_reason: 3
  newton =   1 [      26] linear =     1 [        26] cuts =  0 [   0]
  --> SNES Linear/Non-Linear Iterations = 1 / 1
  --> SNES Residual: 0.212363E-15 0.212363E-15 0.936751E-16
  --> max change:  dcmx=   3.2152E-02  dc/dt=   7.0622E-06 [mol/s]
 Maximum Pore Velocity:   7.5911E+00 [m/d]
 CFL Limiting ( 1.0):   1.0539E-01 ->   5.2693E-02 [d]

== REACTIVE TRANSPORT ==========================================================
  0 2r: 3.56E-03 2x: 0.00E+00 2u: 0.00E+00 ir: 7.04E-04 iu: 0.00E+00 rsn:   0
  1 2r: 1.48E-16 2x: 4.00E+00 2u: 1.58E-01 ir: 5.55E-17 iu: 3.06E-02 rsn: rtol

 Step     27 Time=  8.40705E-01 Dt=  5.26933E-02 [d] conv_reason: 3
  newton =   1 [      27] linear =     1 [        27] cuts =  0 [   0]
  --> SNES Linear/Non-Linear Iterations = 1 / 1
  --> SNES Residual: 0.148290E-15 0.148290E-15 0.555112E-16
  --> max change:  dcmx=   3.0638E-02  dc/dt=   6.7297E-06 [mol/s]
 Maximum Pore Velocity:   7.5911E+00 [m/d]
 CFL Limiting ( 1.0):   1.0539E-01 ->   5.2693E-02 [d]

== REACTIVE TRANSPORT ==========================================================
  0 2r: 3.46E-03 2x: 0.00E+00 2u: 0.00E+00 ir: 6.71E-04 iu: 0.00E+00 rsn:   0
  1 2r: 2.18E-16 2x: 4.11E+00 2u: 1.54E-01 ir: 1.04E-16 iu: 2.93E-02 rsn: rtol

 Step     28 Time=  8.93398E-01 Dt=  5.26933E-02 [d] conv_reason: 3
  newton =   1 [      28] linear =     1 [        28] cuts =  0 [   0]
  --> SNES Linear/Non-Linear Iterations = 1 / 1
  --> SNES Residual: 0.218407E-15 0.218407E-15 0.104083E-15
  --> max change:  dcmx=   2.9311E-02  dc/dt=   6.4382E-06 [mol/s]
 Maximum Pore Velocity:   7.5911E+00 [m/d]
 CFL Limiting ( 1.0):   1.0539E-01 ->   5.2693E-02 [d]

== REACTIVE TRANSPORT ==========================================================
  0 2r: 3.37E-03 2x: 0.00E+00 2u: 0.00E+00 ir: 6.42E-04 iu: 0.00E+00 rsn:   0
  1 2r: 2.09E-16 2x: 4.20E+00 2u: 1.50E-01 ir: 6.25E-17 iu: 2.81E-02 rsn: rtol

 Step     29 Time=  9.46092E-01 Dt=  5.26933E-02 [d] conv_reason: 3
  newton =   1 [      29] linear =     1 [        29] cuts =  0 [   0]
  --> SNES Linear/Non-Linear Iterations = 1 / 1
  --> SNES Residual: 0.208734E-15 0.208734E-15 0.624500E-16
  --> max change:  dcmx=   2.8117E-02  dc/dt=   6.1759E-06 [mol/s]
 Maximum Pore Velocity:   7.5911E+00 [m/d]
 CFL Limiting ( 1.0):   1.0539E-01 ->   5.2693E-02 [d]

== REACTIVE TRANSPORT ==========================================================
  0 2r: 3.29E-03 2x: 0.00E+00 2u: 0.00E+00 ir: 6.16E-04 iu: 0.00E+00 rsn:   0
  1 2r: 2.26E-16 2x: 4.30E+00 2u: 1.50E-01 ir: 1.06E-16 iu: 2.76E-02 rsn: rtol

 Step     30 Time=  1.00000E+00 Dt=  5.39084E-02 [d] conv_reason: 3
  newton =   1 [      30] linear =     1 [        30] cuts =  0 [   0]
  --> SNES Linear/Non-Linear Iterations = 1 / 1
  --> SNES Residual: 0.226339E-15 0.226339E-15 0.105818E-15
  --> max change:  dcmx=   2.7636E-02  dc/dt=   5.9334E-06 [mol/s]
 Maximum Pore Velocity:   7.5911E+00 [m/d]
 CFL Limiting ( 1.0):   1.0782E-01 ->   5.2693E-02 [d]

 --> creating hdf5 output file: 1D_solute.h5
      0.11 Seconds to write HDF5 file.
 --> write tecplot output file: 1D_solute-001.tec
      0.02 Seconds to write to Tecplot file(s)

== RICHARDS FLOW ===============================================================
  0 2r: 4.87E-16 2x: 0.00E+00 2u: 0.00E+00 ir: 1.48E-16 iu: 0.00E+00 rsn:   0
  1 2r: 4.87E-16 2x: 1.26E+06 2u: 6.12E-11 ir: 1.48E-16 iu: 1.44E-11 rsn: stol

 Step     16 Time=  1.68267E+00 Dt=  6.82667E-01 [d] conv_reason: 4
  newton =   1 [      18] linear =     1 [        18] cuts =  0 [   0]
  --> SNES Linear/Non-Linear Iterations = 1 / 1
  --> SNES Residual: 0.486615E-15 0.486615E-17 0.148319E-15
  --> max change: dpmx=   0.0000E+00

== REACTIVE TRANSPORT ==========================================================
  0 2r: 3.21E-03 2x: 0.00E+00 2u: 0.00E+00 ir: 5.92E-04 iu: 0.00E+00 rsn:   0
  1 2r: 2.00E-16 2x: 4.40E+00 2u: 1.43E-01 ir: 7.81E-17 iu: 2.60E-02 rsn: rtol

 Step     31 Time=  1.05269E+00 Dt=  5.26933E-02 [d] conv_reason: 3
  newton =   1 [      31] linear =     1 [        31] cuts =  0 [   0]
  --> SNES Linear/Non-Linear Iterations = 1 / 1
  --> SNES Residual: 0.199826E-15 0.199826E-15 0.780626E-16
  --> max change:  dcmx=   2.6033E-02  dc/dt=   5.7182E-06 [mol/s]
 Maximum Pore Velocity:   7.5911E+00 [m/d]
 CFL Limiting ( 1.0):   1.0539E-01 ->   5.2693E-02 [d]

== REACTIVE TRANSPORT ==========================================================
  0 2r: 3.14E-03 2x: 0.00E+00 2u: 0.00E+00 ir: 5.70E-04 iu: 0.00E+00 rsn:   0
  1 2r: 2.73E-16 2x: 4.49E+00 2u: 1.41E-01 ir: 9.54E-17 iu: 2.51E-02 rsn: rtol

 Step     32 Time=  1.10539E+00 Dt=  5.26933E-02 [d] conv_reason: 3
  newton =   1 [      32] linear =     1 [        32] cuts =  0 [   0]
  --> SNES Linear/Non-Linear Iterations = 1 / 1
  --> SNES Residual: 0.272699E-15 0.272699E-15 0.954098E-16
  --> max change:  dcmx=   2.5147E-02  dc/dt=   5.5236E-06 [mol/s]
 Maximum Pore Velocity:   7.5911E+00 [m/d]
 CFL Limiting ( 1.0):   1.0539E-01 ->   5.2693E-02 [d]

== REACTIVE TRANSPORT ==========================================================
  0 2r: 3.08E-03 2x: 0.00E+00 2u: 0.00E+00 ir: 5.51E-04 iu: 0.00E+00 rsn:   0
  1 2r: 2.43E-16 2x: 4.58E+00 2u: 1.38E-01 ir: 9.54E-17 iu: 2.43E-02 rsn: rtol

 Step     33 Time=  1.15808E+00 Dt=  5.26933E-02 [d] conv_reason: 3
  newton =   1 [      33] linear =     1 [        33] cuts =  0 [   0]
  --> SNES Linear/Non-Linear Iterations = 1 / 1
  --> SNES Residual: 0.243283E-15 0.243283E-15 0.954098E-16
  --> max change:  dcmx=   2.4340E-02  dc/dt=   5.3462E-06 [mol/s]
 Maximum Pore Velocity:   7.5911E+00 [m/d]
 CFL Limiting ( 1.0):   1.0539E-01 ->   5.2693E-02 [d]

== REACTIVE TRANSPORT ==========================================================
  0 2r: 3.02E-03 2x: 0.00E+00 2u: 0.00E+00 ir: 5.33E-04 iu: 0.00E+00 rsn:   0
  1 2r: 2.26E-16 2x: 4.66E+00 2u: 1.35E-01 ir: 7.63E-17 iu: 2.36E-02 rsn: rtol

 Step     34 Time=  1.21077E+00 Dt=  5.26933E-02 [d] conv_reason: 3
  newton =   1 [      34] linear =     1 [        34] cuts =  0 [   0]
  --> SNES Linear/Non-Linear Iterations = 1 / 1
  --> SNES Residual: 0.226012E-15 0.226012E-15 0.763278E-16
  --> max change:  dcmx=   2.3595E-02  dc/dt=   5.1826E-06 [mol/s]
 Maximum Pore Velocity:   7.5911E+00 [m/d]
 CFL Limiting ( 1.0):   1.0539E-01 ->   5.2693E-02 [d]

== REACTIVE TRANSPORT ==========================================================
  0 2r: 2.97E-03 2x: 0.00E+00 2u: 0.00E+00 ir: 5.17E-04 iu: 0.00E+00 rsn:   0
  1 2r: 2.68E-16 2x: 4.75E+00 2u: 1.33E-01 ir: 1.04E-16 iu: 2.29E-02 rsn: rtol

 Step     35 Time=  1.26347E+00 Dt=  5.26933E-02 [d] conv_reason: 3
  newton =   1 [      35] linear =     1 [        35] cuts =  0 [   0]
  --> SNES Linear/Non-Linear Iterations = 1 / 1
  --> SNES Residual: 0.268453E-15 0.268453E-15 0.104083E-15
  --> max change:  dcmx=   2.2906E-02  dc/dt=   5.0312E-06 [mol/s]
 Maximum Pore Velocity:   7.5911E+00 [m/d]
 CFL Limiting ( 1.0):   1.0539E-01 ->   5.2693E-02 [d]

== REACTIVE TRANSPORT ==========================================================
  0 2r: 2.92E-03 2x: 0.00E+00 2u: 0.00E+00 ir: 5.02E-04 iu: 0.00E+00 rsn:   0
  1 2r: 2.36E-16 2x: 4.84E+00 2u: 1.31E-01 ir: 1.01E-16 iu: 2.23E-02 rsn: rtol

 Step     36 Time=  1.31616E+00 Dt=  5.26933E-02 [d] conv_reason: 3
  newton =   1 [      36] linear =     1 [        36] cuts =  0 [   0]
  --> SNES Linear/Non-Linear Iterations = 1 / 1
  --> SNES Residual: 0.235748E-15 0.235748E-15 0.100614E-15
  --> max change:  dcmx=   2.2266E-02  dc/dt=   4.8907E-06 [mol/s]
 Maximum Pore Velocity:   7.5911E+00 [m/d]
 CFL Limiting ( 1.0):   1.0539E-01 ->   5.2693E-02 [d]

== REACTIVE TRANSPORT ==========================================================
  0 2r: 2.87E-03 2x: 0.00E+00 2u: 0.00E+00 ir: 4.88E-04 iu: 0.00E+00 rsn:   0
  1 2r: 2.37E-16 2x: 4.92E+00 2u: 1.29E-01 ir: 1.02E-16 iu: 2.17E-02 rsn: rtol

 Step     37 Time=  1.36885E+00 Dt=  5.26933E-02 [d] conv_reason: 3
  newton =   1 [      37] linear =     1 [        37] cuts =  0 [   0]
  --> SNES Linear/Non-Linear Iterations = 1 / 1
  --> SNES Residual: 0.237100E-15 0.237100E-15 0.102349E-15
  --> max change:  dcmx=   2.1671E-02  dc/dt=   4.7600E-06 [mol/s]
 Maximum Pore Velocity:   7.5911E+00 [m/d]
 CFL Limiting ( 1.0):   1.0539E-01 ->   5.2693E-02 [d]

== REACTIVE TRANSPORT ==========================================================
  0 2r: 2.82E-03 2x: 0.00E+00 2u: 0.00E+00 ir: 4.75E-04 iu: 0.00E+00 rsn:   0
  1 2r: 1.65E-16 2x: 5.00E+00 2u: 1.27E-01 ir: 5.20E-17 iu: 2.11E-02 rsn: rtol

 Step     38 Time=  1.42155E+00 Dt=  5.26933E-02 [d] conv_reason: 3
  newton =   1 [      38] linear =     1 [        38] cuts =  0 [   0]
  --> SNES Linear/Non-Linear Iterations = 1 / 1
  --> SNES Residual: 0.165081E-15 0.165081E-15 0.520417E-16
  --> max change:  dcmx=   2.1119E-02  dc/dt=   4.6387E-06 [mol/s]
 Maximum Pore Velocity:   7.5911E+00 [m/d]
 CFL Limiting ( 1.0):   1.0539E-01 ->   5.2693E-02 [d]

== REACTIVE TRANSPORT ==========================================================
  0 2r: 2.78E-03 2x: 0.00E+00 2u: 0.00E+00 ir: 4.63E-04 iu: 0.00E+00 rsn:   0
  1 2r: 2.55E-16 2x: 5.08E+00 2u: 1.25E-01 ir: 7.98E-17 iu: 2.06E-02 rsn: rtol

 Step     39 Time=  1.47424E+00 Dt=  5.26933E-02 [d] conv_reason: 3
  newton =   1 [      39] linear =     1 [        39] cuts =  0 [   0]
  --> SNES Linear/Non-Linear Iterations = 1 / 1
  --> SNES Residual: 0.255042E-15 0.255042E-15 0.797973E-16
  --> max change:  dcmx=   2.0605E-02  dc/dt=   4.5260E-06 [mol/s]
 Maximum Pore Velocity:   7.5911E+00 [m/d]
 CFL Limiting ( 1.0):   1.0539E-01 ->   5.2693E-02 [d]

== REACTIVE TRANSPORT ==========================================================
  0 2r: 2.74E-03 2x: 0.00E+00 2u: 0.00E+00 ir: 4.51E-04 iu: 0.00E+00 rsn:   0
  1 2r: 2.46E-16 2x: 5.16E+00 2u: 1.24E-01 ir: 9.02E-17 iu: 2.01E-02 rsn: rtol

 Step     40 Time=  1.52693E+00 Dt=  5.26933E-02 [d] conv_reason: 3
  newton =   1 [      40] linear =     1 [        40] cuts =  0 [   0]
  --> SNES Linear/Non-Linear Iterations = 1 / 1
  --> SNES Residual: 0.246370E-15 0.246370E-15 0.902056E-16
  --> max change:  dcmx=   2.0123E-02  dc/dt=   4.4201E-06 [mol/s]
 Maximum Pore Velocity:   7.5911E+00 [m/d]
 CFL Limiting ( 1.0):   1.0539E-01 ->   5.2693E-02 [d]

== REACTIVE TRANSPORT ==========================================================
  0 2r: 2.71E-03 2x: 0.00E+00 2u: 0.00E+00 ir: 4.41E-04 iu: 0.00E+00 rsn:   0
  1 2r: 2.53E-16 2x: 5.24E+00 2u: 1.22E-01 ir: 1.21E-16 iu: 1.97E-02 rsn: rtol

 Step     41 Time=  1.57963E+00 Dt=  5.26933E-02 [d] conv_reason: 3
  newton =   1 [      41] linear =     1 [        41] cuts =  0 [   0]
  --> SNES Linear/Non-Linear Iterations = 1 / 1
  --> SNES Residual: 0.253083E-15 0.253083E-15 0.121431E-15
  --> max change:  dcmx=   1.9670E-02  dc/dt=   4.3205E-06 [mol/s]
 Maximum Pore Velocity:   7.5911E+00 [m/d]
 CFL Limiting ( 1.0):   1.0539E-01 ->   5.2693E-02 [d]

== REACTIVE TRANSPORT ==========================================================
  0 2r: 2.67E-03 2x: 0.00E+00 2u: 0.00E+00 ir: 4.31E-04 iu: 0.00E+00 rsn:   0
  1 2r: 2.38E-16 2x: 5.32E+00 2u: 1.21E-01 ir: 8.67E-17 iu: 1.92E-02 rsn: rtol

 Step     42 Time=  1.63232E+00 Dt=  5.26933E-02 [d] conv_reason: 3
  newton =   1 [      42] linear =     1 [        42] cuts =  0 [   0]
  --> SNES Linear/Non-Linear Iterations = 1 / 1
  --> SNES Residual: 0.237588E-15 0.237588E-15 0.867362E-16
  --> max change:  dcmx=   1.9243E-02  dc/dt=   4.2267E-06 [mol/s]
 Maximum Pore Velocity:   7.5911E+00 [m/d]
 CFL Limiting ( 1.0):   1.0539E-01 ->   5.2693E-02 [d]

== REACTIVE TRANSPORT ==========================================================
  0 2r: 2.64E-03 2x: 0.00E+00 2u: 0.00E+00 ir: 4.21E-04 iu: 0.00E+00 rsn:   0
  1 2r: 2.44E-16 2x: 5.39E+00 2u: 1.14E-01 ir: 8.67E-17 iu: 1.80E-02 rsn: rtol

 Step     43 Time=  1.68267E+00 Dt=  5.03467E-02 [d] conv_reason: 3
  newton =   1 [      43] linear =     1 [        43] cuts =  0 [   0]
  --> SNES Linear/Non-Linear Iterations = 1 / 1
  --> SNES Residual: 0.243904E-15 0.243904E-15 0.867362E-16
  --> max change:  dcmx=   1.8018E-02  dc/dt=   4.1421E-06 [mol/s]
 Maximum Pore Velocity:   7.5911E+00 [m/d]
 CFL Limiting ( 1.0):   1.0069E-01 ->   5.2693E-02 [d]

== RICHARDS FLOW ===============================================================
  0 2r: 4.87E-16 2x: 0.00E+00 2u: 0.00E+00 ir: 1.48E-16 iu: 0.00E+00 rsn:   0
  1 2r: 4.87E-16 2x: 1.26E+06 2u: 6.12E-11 ir: 1.48E-16 iu: 1.44E-11 rsn: stol

 Step     17 Time=  2.00000E+00 Dt=  3.17333E-01 [d] conv_reason: 4
  newton =   1 [      19] linear =     1 [        19] cuts =  0 [   0]
  --> SNES Linear/Non-Linear Iterations = 1 / 1
  --> SNES Residual: 0.486615E-15 0.486615E-17 0.148319E-15
  --> max change: dpmx=   0.0000E+00

== REACTIVE TRANSPORT ==========================================================
  0 2r: 2.61E-03 2x: 0.00E+00 2u: 0.00E+00 ir: 4.13E-04 iu: 0.00E+00 rsn:   0
  1 2r: 2.83E-16 2x: 5.46E+00 2u: 1.18E-01 ir: 9.02E-17 iu: 1.85E-02 rsn: rtol

 Step     44 Time=  1.73536E+00 Dt=  5.26933E-02 [d] conv_reason: 3
  newton =   1 [      44] linear =     1 [        44] cuts =  0 [   0]
  --> SNES Linear/Non-Linear Iterations = 1 / 1
  --> SNES Residual: 0.282961E-15 0.282961E-15 0.902056E-16
  --> max change:  dcmx=   1.8475E-02  dc/dt=   4.0580E-06 [mol/s]
 Maximum Pore Velocity:   7.5911E+00 [m/d]
 CFL Limiting ( 1.0):   1.0539E-01 ->   5.2693E-02 [d]

== REACTIVE TRANSPORT ==========================================================
  0 2r: 2.58E-03 2x: 0.00E+00 2u: 0.00E+00 ir: 4.05E-04 iu: 0.00E+00 rsn:   0
  1 2r: 2.69E-16 2x: 5.54E+00 2u: 1.17E-01 ir: 1.04E-16 iu: 1.81E-02 rsn: rtol

 Step     45 Time=  1.78805E+00 Dt=  5.26933E-02 [d] conv_reason: 3
  newton =   1 [      45] linear =     1 [        45] cuts =  0 [   0]
  --> SNES Linear/Non-Linear Iterations = 1 / 1
  --> SNES Residual: 0.269281E-15 0.269281E-15 0.104083E-15
  --> max change:  dcmx=   1.8113E-02  dc/dt=   3.9784E-06 [mol/s]
 Maximum Pore Velocity:   7.5911E+00 [m/d]
 CFL Limiting ( 1.0):   1.0539E-01 ->   5.2693E-02 [d]

== REACTIVE TRANSPORT ==========================================================
  0 2r: 2.55E-03 2x: 0.00E+00 2u: 0.00E+00 ir: 3.97E-04 iu: 0.00E+00 rsn:   0
  1 2r: 2.33E-16 2x: 5.61E+00 2u: 1.15E-01 ir: 1.04E-16 iu: 1.78E-02 rsn: rtol

 Step     46 Time=  1.84075E+00 Dt=  5.26933E-02 [d] conv_reason: 3
  newton =   1 [      46] linear =     1 [        46] cuts =  0 [   0]
  --> SNES Linear/Non-Linear Iterations = 1 / 1
  --> SNES Residual: 0.232609E-15 0.232609E-15 0.104083E-15
  --> max change:  dcmx=   1.7769E-02  dc/dt=   3.9029E-06 [mol/s]
 Maximum Pore Velocity:   7.5911E+00 [m/d]
 CFL Limiting ( 1.0):   1.0539E-01 ->   5.2693E-02 [d]

== REACTIVE TRANSPORT ==========================================================
  0 2r: 2.53E-03 2x: 0.00E+00 2u: 0.00E+00 ir: 3.89E-04 iu: 0.00E+00 rsn:   0
  1 2r: 3.15E-16 2x: 5.68E+00 2u: 1.14E-01 ir: 9.71E-17 iu: 1.74E-02 rsn: rtol

 Step     47 Time=  1.89344E+00 Dt=  5.26933E-02 [d] conv_reason: 3
  newton =   1 [      47] linear =     1 [        47] cuts =  0 [   0]
  --> SNES Linear/Non-Linear Iterations = 1 / 1
  --> SNES Residual: 0.314876E-15 0.314876E-15 0.971445E-16
  --> max change:  dcmx=   1.7444E-02  dc/dt=   3.8315E-06 [mol/s]
 Maximum Pore Velocity:   7.5911E+00 [m/d]
 CFL Limiting ( 1.0):   1.0539E-01 ->   5.2693E-02 [d]

== REACTIVE TRANSPORT ==========================================================
  0 2r: 2.50E-03 2x: 0.00E+00 2u: 0.00E+00 ir: 3.82E-04 iu: 0.00E+00 rsn:   0
  1 2r: 3.35E-16 2x: 5.75E+00 2u: 1.13E-01 ir: 9.37E-17 iu: 1.71E-02 rsn: rtol

 Step     48 Time=  1.94613E+00 Dt=  5.26933E-02 [d] conv_reason: 3
  newton =   1 [      48] linear =     1 [        48] cuts =  0 [   0]
  --> SNES Linear/Non-Linear Iterations = 1 / 1
  --> SNES Residual: 0.335269E-15 0.335269E-15 0.936751E-16
  --> max change:  dcmx=   1.7135E-02  dc/dt=   3.7637E-06 [mol/s]
 Maximum Pore Velocity:   7.5911E+00 [m/d]
 CFL Limiting ( 1.0):   1.0539E-01 ->   5.2693E-02 [d]

== REACTIVE TRANSPORT ==========================================================
  0 2r: 2.48E-03 2x: 0.00E+00 2u: 0.00E+00 ir: 3.75E-04 iu: 0.00E+00 rsn:   0
  1 2r: 3.39E-16 2x: 5.83E+00 2u: 1.14E-01 ir: 1.14E-16 iu: 1.72E-02 rsn: rtol

 Step     49 Time=  2.00000E+00 Dt=  5.38667E-02 [d] conv_reason: 3
  newton =   1 [      49] linear =     1 [        49] cuts =  0 [   0]
  --> SNES Linear/Non-Linear Iterations = 1 / 1
  --> SNES Residual: 0.339249E-15 0.339249E-15 0.114492E-15
  --> max change:  dcmx=   1.7209E-02  dc/dt=   3.6977E-06 [mol/s]
 Maximum Pore Velocity:   7.5911E+00 [m/d]
 CFL Limiting ( 1.0):   1.0773E-01 ->   5.2693E-02 [d]

 --> appending to hdf5 output file: 1D_solute.h5
      0.02 Seconds to write HDF5 file.
 --> write tecplot output file: 1D_solute-002.tec
      0.01 Seconds to write to Tecplot file(s)

== RICHARDS FLOW ===============================================================
  0 2r: 4.87E-16 2x: 0.00E+00 2u: 0.00E+00 ir: 1.48E-16 iu: 0.00E+00 rsn:   0
  1 2r: 4.87E-16 2x: 1.26E+06 2u: 6.12E-11 ir: 1.48E-16 iu: 1.44E-11 rsn: stol

 Step     18 Time=  3.00000E+00 Dt=  1.00000E+00 [d] conv_reason: 4
  newton =   1 [      20] linear =     1 [        20] cuts =  0 [   0]
  --> SNES Linear/Non-Linear Iterations = 1 / 1
  --> SNES Residual: 0.486615E-15 0.486615E-17 0.148319E-15
  --> max change: dpmx=   0.0000E+00

== REACTIVE TRANSPORT ==========================================================
  0 2r: 2.45E-03 2x: 0.00E+00 2u: 0.00E+00 ir: 3.69E-04 iu: 0.00E+00 rsn:   0
  1 2r: 2.42E-16 2x: 5.90E+00 2u: 1.11E-01 ir: 6.59E-17 iu: 1.66E-02 rsn: rtol

 Step     50 Time=  2.05269E+00 Dt=  5.26933E-02 [d] conv_reason: 3
  newton =   1 [      50] linear =     1 [        50] cuts =  0 [   0]
  --> SNES Linear/Non-Linear Iterations = 1 / 1
  --> SNES Residual: 0.242092E-15 0.242092E-15 0.659195E-16
  --> max change:  dcmx=   1.6554E-02  dc/dt=   3.6361E-06 [mol/s]
 Maximum Pore Velocity:   7.5911E+00 [m/d]
 CFL Limiting ( 1.0):   1.0539E-01 ->   5.2693E-02 [d]

== REACTIVE TRANSPORT ==========================================================
  0 2r: 2.43E-03 2x: 0.00E+00 2u: 0.00E+00 ir: 3.63E-04 iu: 0.00E+00 rsn:   0
  1 2r: 2.94E-16 2x: 5.96E+00 2u: 1.10E-01 ir: 8.33E-17 iu: 1.63E-02 rsn: rtol

 Step     51 Time=  2.10539E+00 Dt=  5.26933E-02 [d] conv_reason: 3
  newton =   1 [      51] linear =     1 [        51] cuts =  0 [   0]
  --> SNES Linear/Non-Linear Iterations = 1 / 1
  --> SNES Residual: 0.294148E-15 0.294148E-15 0.832667E-16
  --> max change:  dcmx=   1.6286E-02  dc/dt=   3.5772E-06 [mol/s]
 Maximum Pore Velocity:   7.5911E+00 [m/d]
 CFL Limiting ( 1.0):   1.0539E-01 ->   5.2693E-02 [d]

== REACTIVE TRANSPORT ==========================================================
  0 2r: 2.41E-03 2x: 0.00E+00 2u: 0.00E+00 ir: 3.57E-04 iu: 0.00E+00 rsn:   0
  1 2r: 2.79E-16 2x: 6.03E+00 2u: 1.09E-01 ir: 9.37E-17 iu: 1.60E-02 rsn: rtol

 Step     52 Time=  2.15808E+00 Dt=  5.26933E-02 [d] conv_reason: 3
  newton =   1 [      52] linear =     1 [        52] cuts =  0 [   0]
  --> SNES Linear/Non-Linear Iterations = 1 / 1
  --> SNES Residual: 0.278553E-15 0.278553E-15 0.936751E-16
  --> max change:  dcmx=   1.6029E-02  dc/dt=   3.5209E-06 [mol/s]
 Maximum Pore Velocity:   7.5911E+00 [m/d]
 CFL Limiting ( 1.0):   1.0539E-01 ->   5.2693E-02 [d]

== REACTIVE TRANSPORT ==========================================================
  0 2r: 2.38E-03 2x: 0.00E+00 2u: 0.00E+00 ir: 3.51E-04 iu: 0.00E+00 rsn:   0
  1 2r: 3.53E-16 2x: 6.10E+00 2u: 1.08E-01 ir: 9.89E-17 iu: 1.58E-02 rsn: rtol

 Step     53 Time=  2.21077E+00 Dt=  5.26933E-02 [d] conv_reason: 3
  newton =   1 [      53] linear =     1 [        53] cuts =  0 [   0]
  --> SNES Linear/Non-Linear Iterations = 1 / 1
  --> SNES Residual: 0.352984E-15 0.352984E-15 0.988792E-16
  --> max change:  dcmx=   1.5784E-02  dc/dt=   3.4669E-06 [mol/s]
 Maximum Pore Velocity:   7.5911E+00 [m/d]
 CFL Limiting ( 1.0):   1.0539E-01 ->   5.2693E-02 [d]

== REACTIVE TRANSPORT ==========================================================
  0 2r: 2.36E-03 2x: 0.00E+00 2u: 0.00E+00 ir: 3.46E-04 iu: 0.00E+00 rsn:   0
  1 2r: 3.05E-16 2x: 6.17E+00 2u: 1.07E-01 ir: 1.06E-16 iu: 1.55E-02 rsn: rtol

 Step     54 Time=  2.26347E+00 Dt=  5.26933E-02 [d] conv_reason: 3
  newton =   1 [      54] linear =     1 [        54] cuts =  0 [   0]
  --> SNES Linear/Non-Linear Iterations = 1 / 1
  --> SNES Residual: 0.304699E-15 0.304699E-15 0.105818E-15
  --> max change:  dcmx=   1.5548E-02  dc/dt=   3.4152E-06 [mol/s]
 Maximum Pore Velocity:   7.5911E+00 [m/d]
 CFL Limiting ( 1.0):   1.0539E-01 ->   5.2693E-02 [d]

== REACTIVE TRANSPORT ==========================================================
  0 2r: 2.34E-03 2x: 0.00E+00 2u: 0.00E+00 ir: 3.41E-04 iu: 0.00E+00 rsn:   0
  1 2r: 3.35E-16 2x: 6.23E+00 2u: 1.06E-01 ir: 1.04E-16 iu: 1.53E-02 rsn: rtol

 Step     55 Time=  2.31616E+00 Dt=  5.26933E-02 [d] conv_reason: 3
  newton =   1 [      55] linear =     1 [        55] cuts =  0 [   0]
  --> SNES Linear/Non-Linear Iterations = 1 / 1
  --> SNES Residual: 0.334572E-15 0.334572E-15 0.104083E-15
  --> max change:  dcmx=   1.5323E-02  dc/dt=   3.3656E-06 [mol/s]
 Maximum Pore Velocity:   7.5911E+00 [m/d]
 CFL Limiting ( 1.0):   1.0539E-01 ->   5.2693E-02 [d]

== REACTIVE TRANSPORT ==========================================================
  0 2r: 2.32E-03 2x: 0.00E+00 2u: 0.00E+00 ir: 3.36E-04 iu: 0.00E+00 rsn:   0
  1 2r: 3.60E-16 2x: 6.30E+00 2u: 1.05E-01 ir: 1.18E-16 iu: 1.51E-02 rsn: rtol

 Step     56 Time=  2.36885E+00 Dt=  5.26933E-02 [d] conv_reason: 3
  newton =   1 [      56] linear =     1 [        56] cuts =  0 [   0]
  --> SNES Linear/Non-Linear Iterations = 1 / 1
  --> SNES Residual: 0.360338E-15 0.360338E-15 0.117961E-15
  --> max change:  dcmx=   1.5106E-02  dc/dt=   3.3180E-06 [mol/s]
 Maximum Pore Velocity:   7.5911E+00 [m/d]
 CFL Limiting ( 1.0):   1.0539E-01 ->   5.2693E-02 [d]

== REACTIVE TRANSPORT ==========================================================
  0 2r: 2.30E-03 2x: 0.00E+00 2u: 0.00E+00 ir: 3.31E-04 iu: 0.00E+00 rsn:   0
  1 2r: 3.20E-16 2x: 6.36E+00 2u: 1.04E-01 ir: 1.16E-16 iu: 1.49E-02 rsn: rtol

 Step     57 Time=  2.42155E+00 Dt=  5.26933E-02 [d] conv_reason: 3
  newton =   1 [      57] linear =     1 [        57] cuts =  0 [   0]
  --> SNES Linear/Non-Linear Iterations = 1 / 1
  --> SNES Residual: 0.319730E-15 0.319730E-15 0.116226E-15
  --> max change:  dcmx=   1.4898E-02  dc/dt=   3.2723E-06 [mol/s]
 Maximum Pore Velocity:   7.5911E+00 [m/d]
 CFL Limiting ( 1.0):   1.0539E-01 ->   5.2693E-02 [d]

== REACTIVE TRANSPORT ==========================================================
  0 2r: 2.28E-03 2x: 0.00E+00 2u: 0.00E+00 ir: 3.26E-04 iu: 0.00E+00 rsn:   0
  1 2r: 2.82E-16 2x: 6.43E+00 2u: 1.03E-01 ir: 1.08E-16 iu: 1.47E-02 rsn: rtol

 Step     58 Time=  2.47424E+00 Dt=  5.26933E-02 [d] conv_reason: 3
  newton =   1 [      58] linear =     1 [        58] cuts =  0 [   0]
  --> SNES Linear/Non-Linear Iterations = 1 / 1
  --> SNES Residual: 0.282316E-15 0.282316E-15 0.107553E-15
  --> max change:  dcmx=   1.4699E-02  dc/dt=   3.2286E-06 [mol/s]
 Maximum Pore Velocity:   7.5911E+00 [m/d]
 CFL Limiting ( 1.0):   1.0539E-01 ->   5.2693E-02 [d]

== REACTIVE TRANSPORT ==========================================================
  0 2r: 2.26E-03 2x: 0.00E+00 2u: 0.00E+00 ir: 3.22E-04 iu: 0.00E+00 rsn:   0
  1 2r: 2.59E-16 2x: 6.49E+00 2u: 1.02E-01 ir: 7.63E-17 iu: 1.45E-02 rsn: rtol

 Step     59 Time=  2.52693E+00 Dt=  5.26933E-02 [d] conv_reason: 3
  newton =   1 [      59] linear =     1 [        59] cuts =  0 [   0]
  --> SNES Linear/Non-Linear Iterations = 1 / 1
  --> SNES Residual: 0.258921E-15 0.258921E-15 0.763278E-16
  --> max change:  dcmx=   1.4508E-02  dc/dt=   3.1868E-06 [mol/s]
 Maximum Pore Velocity:   7.5911E+00 [m/d]
 CFL Limiting ( 1.0):   1.0539E-01 ->   5.2693E-02 [d]

== REACTIVE TRANSPORT ==========================================================
  0 2r: 2.24E-03 2x: 0.00E+00 2u: 0.00E+00 ir: 3.18E-04 iu: 0.00E+00 rsn:   0
  1 2r: 2.80E-16 2x: 6.56E+00 2u: 1.01E-01 ir: 9.71E-17 iu: 1.43E-02 rsn: rtol

 Step     60 Time=  2.57963E+00 Dt=  5.26933E-02 [d] conv_reason: 3
  newton =   1 [      60] linear =     1 [        60] cuts =  0 [   0]
  --> SNES Linear/Non-Linear Iterations = 1 / 1
  --> SNES Residual: 0.279643E-15 0.279643E-15 0.971445E-16
  --> max change:  dcmx=   1.4325E-02  dc/dt=   3.1465E-06 [mol/s]
 Maximum Pore Velocity:   7.5911E+00 [m/d]
 CFL Limiting ( 1.0):   1.0539E-01 ->   5.2693E-02 [d]

== REACTIVE TRANSPORT ==========================================================
  0 2r: 2.22E-03 2x: 0.00E+00 2u: 0.00E+00 ir: 3.14E-04 iu: 0.00E+00 rsn:   0
  1 2r: 3.27E-16 2x: 6.62E+00 2u: 1.00E-01 ir: 1.01E-16 iu: 1.41E-02 rsn: rtol

 Step     61 Time=  2.63232E+00 Dt=  5.26933E-02 [d] conv_reason: 3
  newton =   1 [      61] linear =     1 [        61] cuts =  0 [   0]
  --> SNES Linear/Non-Linear Iterations = 1 / 1
  --> SNES Residual: 0.326565E-15 0.326565E-15 0.100614E-15
  --> max change:  dcmx=   1.4149E-02  dc/dt=   3.1079E-06 [mol/s]
 Maximum Pore Velocity:   7.5911E+00 [m/d]
 CFL Limiting ( 1.0):   1.0539E-01 ->   5.2693E-02 [d]

== REACTIVE TRANSPORT ==========================================================
  0 2r: 2.20E-03 2x: 0.00E+00 2u: 0.00E+00 ir: 3.10E-04 iu: 0.00E+00 rsn:   0
  1 2r: 2.86E-16 2x: 6.68E+00 2u: 9.95E-02 ir: 9.02E-17 iu: 1.40E-02 rsn: rtol

 Step     62 Time=  2.68501E+00 Dt=  5.26933E-02 [d] conv_reason: 3
  newton =   1 [      62] linear =     1 [        62] cuts =  0 [   0]
  --> SNES Linear/Non-Linear Iterations = 1 / 1
  --> SNES Residual: 0.286290E-15 0.286290E-15 0.902056E-16
  --> max change:  dcmx=   1.3980E-02  dc/dt=   3.0708E-06 [mol/s]
 Maximum Pore Velocity:   7.5911E+00 [m/d]
 CFL Limiting ( 1.0):   1.0539E-01 ->   5.2693E-02 [d]

== REACTIVE TRANSPORT ==========================================================
  0 2r: 2.18E-03 2x: 0.00E+00 2u: 0.00E+00 ir: 3.06E-04 iu: 0.00E+00 rsn:   0
  1 2r: 3.71E-16 2x: 6.74E+00 2u: 9.86E-02 ir: 1.11E-16 iu: 1.38E-02 rsn: rtol

 Step     63 Time=  2.73771E+00 Dt=  5.26933E-02 [d] conv_reason: 3
  newton =   1 [      63] linear =     1 [        63] cuts =  0 [   0]
  --> SNES Linear/Non-Linear Iterations = 1 / 1
  --> SNES Residual: 0.370539E-15 0.370539E-15 0.111022E-15
  --> max change:  dcmx=   1.3818E-02  dc/dt=   3.0351E-06 [mol/s]
 Maximum Pore Velocity:   7.5911E+00 [m/d]
 CFL Limiting ( 1.0):   1.0539E-01 ->   5.2693E-02 [d]

== REACTIVE TRANSPORT ==========================================================
  0 2r: 2.16E-03 2x: 0.00E+00 2u: 0.00E+00 ir: 3.03E-04 iu: 0.00E+00 rsn:   0
  1 2r: 3.55E-16 2x: 6.80E+00 2u: 9.76E-02 ir: 9.71E-17 iu: 1.37E-02 rsn: rtol

 Step     64 Time=  2.79040E+00 Dt=  5.26933E-02 [d] conv_reason: 3
  newton =   1 [      64] linear =     1 [        64] cuts =  0 [   0]
  --> SNES Linear/Non-Linear Iterations = 1 / 1
  --> SNES Residual: 0.354916E-15 0.354916E-15 0.971445E-16
  --> max change:  dcmx=   1.3662E-02  dc/dt=   3.0009E-06 [mol/s]
 Maximum Pore Velocity:   7.5911E+00 [m/d]
 CFL Limiting ( 1.0):   1.0539E-01 ->   5.2693E-02 [d]

== REACTIVE TRANSPORT ==========================================================
  0 2r: 2.14E-03 2x: 0.00E+00 2u: 0.00E+00 ir: 2.99E-04 iu: 0.00E+00 rsn:   0
  1 2r: 4.04E-16 2x: 6.86E+00 2u: 9.66E-02 ir: 1.13E-16 iu: 1.35E-02 rsn: rtol

 Step     65 Time=  2.84309E+00 Dt=  5.26933E-02 [d] conv_reason: 3
  newton =   1 [      65] linear =     1 [        65] cuts =  0 [   0]
  --> SNES Linear/Non-Linear Iterations = 1 / 1
  --> SNES Residual: 0.404373E-15 0.404373E-15 0.112757E-15
  --> max change:  dcmx=   1.3513E-02  dc/dt=   2.9681E-06 [mol/s]
 Maximum Pore Velocity:   7.5911E+00 [m/d]
 CFL Limiting ( 1.0):   1.0539E-01 ->   5.2693E-02 [d]

== REACTIVE TRANSPORT ==========================================================
  0 2r: 2.12E-03 2x: 0.00E+00 2u: 0.00E+00 ir: 2.96E-04 iu: 0.00E+00 rsn:   0
  1 2r: 4.03E-16 2x: 6.92E+00 2u: 9.56E-02 ir: 1.14E-16 iu: 1.34E-02 rsn: rtol

 Step     66 Time=  2.89579E+00 Dt=  5.26933E-02 [d] conv_reason: 3
  newton =   1 [      66] linear =     1 [        66] cuts =  0 [   0]
  --> SNES Linear/Non-Linear Iterations = 1 / 1
  --> SNES Residual: 0.402861E-15 0.402861E-15 0.114492E-15
  --> max change:  dcmx=   1.3371E-02  dc/dt=   2.9369E-06 [mol/s]
 Maximum Pore Velocity:   7.5911E+00 [m/d]
 CFL Limiting ( 1.0):   1.0539E-01 ->   5.2693E-02 [d]

== REACTIVE TRANSPORT ==========================================================
  0 2r: 2.09E-03 2x: 0.00E+00 2u: 0.00E+00 ir: 2.93E-04 iu: 0.00E+00 rsn:   0
  1 2r: 3.39E-16 2x: 6.98E+00 2u: 9.46E-02 ir: 1.28E-16 iu: 1.32E-02 rsn: rtol

 Step     67 Time=  2.94848E+00 Dt=  5.26933E-02 [d] conv_reason: 3
  newton =   1 [      67] linear =     1 [        67] cuts =  0 [   0]
  --> SNES Linear/Non-Linear Iterations = 1 / 1
  --> SNES Residual: 0.339195E-15 0.339195E-15 0.128370E-15
  --> max change:  dcmx=   1.3236E-02  dc/dt=   2.9073E-06 [mol/s]
 Maximum Pore Velocity:   7.5911E+00 [m/d]
 CFL Limiting ( 1.0):   1.0539E-01 ->   5.2693E-02 [d]

== REACTIVE TRANSPORT ==========================================================
  0 2r: 2.07E-03 2x: 0.00E+00 2u: 0.00E+00 ir: 2.90E-04 iu: 0.00E+00 rsn:   0
  1 2r: 3.03E-16 2x: 7.04E+00 2u: 9.15E-02 ir: 9.02E-17 iu: 1.28E-02 rsn: rtol

 Step     68 Time=  3.00000E+00 Dt=  5.15201E-02 [d] conv_reason: 3
  newton =   1 [      68] linear =     1 [        68] cuts =  0 [   0]
  --> SNES Linear/Non-Linear Iterations = 1 / 1
  --> SNES Residual: 0.302946E-15 0.302946E-15 0.902056E-16
  --> max change:  dcmx=   1.2819E-02  dc/dt=   2.8798E-06 [mol/s]
 Maximum Pore Velocity:   7.5911E+00 [m/d]
 CFL Limiting ( 1.0):   1.0304E-01 ->   5.2693E-02 [d]

 --> appending to hdf5 output file: 1D_solute.h5
      0.02 Seconds to write HDF5 file.
 --> write tecplot output file: 1D_solute-003.tec
      0.01 Seconds to write to Tecplot file(s)

== RICHARDS FLOW ===============================================================
  0 2r: 4.87E-16 2x: 0.00E+00 2u: 0.00E+00 ir: 1.48E-16 iu: 0.00E+00 rsn:   0
  1 2r: 4.87E-16 2x: 1.26E+06 2u: 6.12E-11 ir: 1.48E-16 iu: 1.44E-11 rsn: stol

 Step     19 Time=  4.00000E+00 Dt=  1.00000E+00 [d] conv_reason: 4
  newton =   1 [      21] linear =     1 [        21] cuts =  0 [   0]
  --> SNES Linear/Non-Linear Iterations = 1 / 1
  --> SNES Residual: 0.486615E-15 0.486615E-17 0.148319E-15
  --> max change: dpmx=   0.0000E+00

== REACTIVE TRANSPORT ==========================================================
  0 2r: 2.05E-03 2x: 0.00E+00 2u: 0.00E+00 ir: 2.87E-04 iu: 0.00E+00 rsn:   0
  1 2r: 3.68E-16 2x: 7.10E+00 2u: 9.26E-02 ir: 1.14E-16 iu: 1.30E-02 rsn: rtol

 Step     69 Time=  3.05269E+00 Dt=  5.26933E-02 [d] conv_reason: 3
  newton =   1 [      69] linear =     1 [        69] cuts =  0 [   0]
  --> SNES Linear/Non-Linear Iterations = 1 / 1
  --> SNES Residual: 0.367590E-15 0.367590E-15 0.114492E-15
  --> max change:  dcmx=   1.2989E-02  dc/dt=   2.8530E-06 [mol/s]
 Maximum Pore Velocity:   7.5911E+00 [m/d]
 CFL Limiting ( 1.0):   1.0539E-01 ->   5.2693E-02 [d]

== REACTIVE TRANSPORT ==========================================================
  0 2r: 2.03E-03 2x: 0.00E+00 2u: 0.00E+00 ir: 2.84E-04 iu: 0.00E+00 rsn:   0
  1 2r: 3.00E-16 2x: 7.15E+00 2u: 9.15E-02 ir: 7.29E-17 iu: 1.29E-02 rsn: rtol

 Step     70 Time=  3.10539E+00 Dt=  5.26933E-02 [d] conv_reason: 3
  newton =   1 [      70] linear =     1 [        70] cuts =  0 [   0]
  --> SNES Linear/Non-Linear Iterations = 1 / 1
  --> SNES Residual: 0.299543E-15 0.299543E-15 0.728584E-16
  --> max change:  dcmx=   1.2873E-02  dc/dt=   2.8276E-06 [mol/s]
 Maximum Pore Velocity:   7.5911E+00 [m/d]
 CFL Limiting ( 1.0):   1.0539E-01 ->   5.2693E-02 [d]

== REACTIVE TRANSPORT ==========================================================
  0 2r: 2.00E-03 2x: 0.00E+00 2u: 0.00E+00 ir: 2.82E-04 iu: 0.00E+00 rsn:   0
  1 2r: 3.31E-16 2x: 7.21E+00 2u: 9.05E-02 ir: 8.33E-17 iu: 1.28E-02 rsn: rtol

 Step     71 Time=  3.15808E+00 Dt=  5.26933E-02 [d] conv_reason: 3
  newton =   1 [      71] linear =     1 [        71] cuts =  0 [   0]
  --> SNES Linear/Non-Linear Iterations = 1 / 1
  --> SNES Residual: 0.331064E-15 0.331064E-15 0.832667E-16
  --> max change:  dcmx=   1.2766E-02  dc/dt=   2.8041E-06 [mol/s]
 Maximum Pore Velocity:   7.5911E+00 [m/d]
 CFL Limiting ( 1.0):   1.0539E-01 ->   5.2693E-02 [d]

== REACTIVE TRANSPORT ==========================================================
  0 2r: 1.98E-03 2x: 0.00E+00 2u: 0.00E+00 ir: 2.80E-04 iu: 0.00E+00 rsn:   0
  1 2r: 3.63E-16 2x: 7.27E+00 2u: 8.94E-02 ir: 1.11E-16 iu: 1.27E-02 rsn: rtol

 Step     72 Time=  3.21077E+00 Dt=  5.26933E-02 [d] conv_reason: 3
  newton =   1 [      72] linear =     1 [        72] cuts =  0 [   0]
  --> SNES Linear/Non-Linear Iterations = 1 / 1
  --> SNES Residual: 0.362697E-15 0.362697E-15 0.111022E-15
  --> max change:  dcmx=   1.2666E-02  dc/dt=   2.7820E-06 [mol/s]
 Maximum Pore Velocity:   7.5911E+00 [m/d]
 CFL Limiting ( 1.0):   1.0539E-01 ->   5.2693E-02 [d]

== REACTIVE TRANSPORT ==========================================================
  0 2r: 1.96E-03 2x: 0.00E+00 2u: 0.00E+00 ir: 2.77E-04 iu: 0.00E+00 rsn:   0
  1 2r: 3.54E-16 2x: 7.32E+00 2u: 8.83E-02 ir: 9.71E-17 iu: 1.26E-02 rsn: rtol

 Step     73 Time=  3.26347E+00 Dt=  5.26933E-02 [d] conv_reason: 3
  newton =   1 [      73] linear =     1 [        73] cuts =  0 [   0]
  --> SNES Linear/Non-Linear Iterations = 1 / 1
  --> SNES Residual: 0.354037E-15 0.354037E-15 0.971445E-16
  --> max change:  dcmx=   1.2574E-02  dc/dt=   2.7618E-06 [mol/s]
 Maximum Pore Velocity:   7.5911E+00 [m/d]
 CFL Limiting ( 1.0):   1.0539E-01 ->   5.2693E-02 [d]

== REACTIVE TRANSPORT ==========================================================
  0 2r: 1.93E-03 2x: 0.00E+00 2u: 0.00E+00 ir: 2.75E-04 iu: 0.00E+00 rsn:   0
  1 2r: 3.88E-16 2x: 7.38E+00 2u: 8.72E-02 ir: 1.04E-16 iu: 1.25E-02 rsn: rtol

 Step     74 Time=  3.31616E+00 Dt=  5.26933E-02 [d] conv_reason: 3
  newton =   1 [      74] linear =     1 [        74] cuts =  0 [   0]
  --> SNES Linear/Non-Linear Iterations = 1 / 1
  --> SNES Residual: 0.388470E-15 0.388470E-15 0.104083E-15
  --> max change:  dcmx=   1.2489E-02  dc/dt=   2.7432E-06 [mol/s]
 Maximum Pore Velocity:   7.5911E+00 [m/d]
 CFL Limiting ( 1.0):   1.0539E-01 ->   5.2693E-02 [d]

== REACTIVE TRANSPORT ==========================================================
  0 2r: 1.91E-03 2x: 0.00E+00 2u: 0.00E+00 ir: 2.74E-04 iu: 0.00E+00 rsn:   0
  1 2r: 3.36E-16 2x: 7.43E+00 2u: 8.60E-02 ir: 1.14E-16 iu: 1.24E-02 rsn: rtol

 Step     75 Time=  3.36885E+00 Dt=  5.26933E-02 [d] conv_reason: 3
  newton =   1 [      75] linear =     1 [        75] cuts =  0 [   0]
  --> SNES Linear/Non-Linear Iterations = 1 / 1
  --> SNES Residual: 0.336214E-15 0.336214E-15 0.114492E-15
  --> max change:  dcmx=   1.2414E-02  dc/dt=   2.7267E-06 [mol/s]
 Maximum Pore Velocity:   7.5911E+00 [m/d]
 CFL Limiting ( 1.0):   1.0539E-01 ->   5.2693E-02 [d]

== REACTIVE TRANSPORT ==========================================================
  0 2r: 1.88E-03 2x: 0.00E+00 2u: 0.00E+00 ir: 2.72E-04 iu: 0.00E+00 rsn:   0
  1 2r: 3.66E-16 2x: 7.48E+00 2u: 8.49E-02 ir: 1.28E-16 iu: 1.23E-02 rsn: rtol

 Step     76 Time=  3.42155E+00 Dt=  5.26933E-02 [d] conv_reason: 3
  newton =   1 [      76] linear =     1 [        76] cuts =  0 [   0]
  --> SNES Linear/Non-Linear Iterations = 1 / 1
  --> SNES Residual: 0.365721E-15 0.365721E-15 0.128370E-15
  --> max change:  dcmx=   1.2348E-02  dc/dt=   2.7121E-06 [mol/s]
 Maximum Pore Velocity:   7.5911E+00 [m/d]
 CFL Limiting ( 1.0):   1.0539E-01 ->   5.2693E-02 [d]

== REACTIVE TRANSPORT ==========================================================
  0 2r: 1.86E-03 2x: 0.00E+00 2u: 0.00E+00 ir: 2.70E-04 iu: 0.00E+00 rsn:   0
  1 2r: 3.51E-16 2x: 7.54E+00 2u: 8.37E-02 ir: 9.37E-17 iu: 1.23E-02 rsn: rtol

 Step     77 Time=  3.47424E+00 Dt=  5.26933E-02 [d] conv_reason: 3
  newton =   1 [      77] linear =     1 [        77] cuts =  0 [   0]
  --> SNES Linear/Non-Linear Iterations = 1 / 1
  --> SNES Residual: 0.351115E-15 0.351115E-15 0.936751E-16
  --> max change:  dcmx=   1.2292E-02  dc/dt=   2.6998E-06 [mol/s]
 Maximum Pore Velocity:   7.5911E+00 [m/d]
 CFL Limiting ( 1.0):   1.0539E-01 ->   5.2693E-02 [d]

== REACTIVE TRANSPORT ==========================================================
  0 2r: 1.83E-03 2x: 0.00E+00 2u: 0.00E+00 ir: 2.69E-04 iu: 0.00E+00 rsn:   0
  1 2r: 3.82E-16 2x: 7.59E+00 2u: 8.25E-02 ir: 1.28E-16 iu: 1.22E-02 rsn: rtol

 Step     78 Time=  3.52693E+00 Dt=  5.26933E-02 [d] conv_reason: 3
  newton =   1 [      78] linear =     1 [        78] cuts =  0 [   0]
  --> SNES Linear/Non-Linear Iterations = 1 / 1
  --> SNES Residual: 0.382130E-15 0.382130E-15 0.128370E-15
  --> max change:  dcmx=   1.2247E-02  dc/dt=   2.6901E-06 [mol/s]
 Maximum Pore Velocity:   7.5911E+00 [m/d]
 CFL Limiting ( 1.0):   1.0539E-01 ->   5.2693E-02 [d]

== REACTIVE TRANSPORT ==========================================================
  0 2r: 1.81E-03 2x: 0.00E+00 2u: 0.00E+00 ir: 2.68E-04 iu: 0.00E+00 rsn:   0
  1 2r: 4.17E-16 2x: 7.64E+00 2u: 8.13E-02 ir: 1.32E-16 iu: 1.22E-02 rsn: rtol

 Step     79 Time=  3.57963E+00 Dt=  5.26933E-02 [d] conv_reason: 3
  newton =   1 [      79] linear =     1 [        79] cuts =  0 [   0]
  --> SNES Linear/Non-Linear Iterations = 1 / 1
  --> SNES Residual: 0.417075E-15 0.417075E-15 0.131839E-15
  --> max change:  dcmx=   1.2216E-02  dc/dt=   2.6833E-06 [mol/s]
 Maximum Pore Velocity:   7.5911E+00 [m/d]
 CFL Limiting ( 1.0):   1.0539E-01 ->   5.2693E-02 [d]

== REACTIVE TRANSPORT ==========================================================
  0 2r: 1.78E-03 2x: 0.00E+00 2u: 0.00E+00 ir: 2.68E-04 iu: 0.00E+00 rsn:   0
  1 2r: 2.80E-16 2x: 7.69E+00 2u: 8.01E-02 ir: 7.63E-17 iu: 1.22E-02 rsn: rtol

 Step     80 Time=  3.63232E+00 Dt=  5.26933E-02 [d] conv_reason: 3
  newton =   1 [      80] linear =     1 [        80] cuts =  0 [   0]
  --> SNES Linear/Non-Linear Iterations = 1 / 1
  --> SNES Residual: 0.280417E-15 0.280417E-15 0.763278E-16
  --> max change:  dcmx=   1.2202E-02  dc/dt=   2.6801E-06 [mol/s]
 Maximum Pore Velocity:   7.5911E+00 [m/d]
 CFL Limiting ( 1.0):   1.0539E-01 ->   5.2693E-02 [d]

== REACTIVE TRANSPORT ==========================================================
  0 2r: 1.76E-03 2x: 0.00E+00 2u: 0.00E+00 ir: 2.67E-04 iu: 0.00E+00 rsn:   0
  1 2r: 4.47E-16 2x: 7.74E+00 2u: 7.89E-02 ir: 1.32E-16 iu: 1.22E-02 rsn: rtol

 Step     81 Time=  3.68501E+00 Dt=  5.26933E-02 [d] conv_reason: 3
  newton =   1 [      81] linear =     1 [        81] cuts =  0 [   0]
  --> SNES Linear/Non-Linear Iterations = 1 / 1
  --> SNES Residual: 0.447286E-15 0.447286E-15 0.131839E-15
  --> max change:  dcmx=   1.2186E-02  dc/dt=   2.6767E-06 [mol/s]
 Maximum Pore Velocity:   7.5911E+00 [m/d]
 CFL Limiting ( 1.0):   1.0539E-01 ->   5.2693E-02 [d]

== REACTIVE TRANSPORT ==========================================================
  0 2r: 1.73E-03 2x: 0.00E+00 2u: 0.00E+00 ir: 2.67E-04 iu: 0.00E+00 rsn:   0
  1 2r: 3.68E-16 2x: 7.79E+00 2u: 7.77E-02 ir: 9.02E-17 iu: 1.22E-02 rsn: rtol

 Step     82 Time=  3.73771E+00 Dt=  5.26933E-02 [d] conv_reason: 3
  newton =   1 [      82] linear =     1 [        82] cuts =  0 [   0]
  --> SNES Linear/Non-Linear Iterations = 1 / 1
  --> SNES Residual: 0.368285E-15 0.368285E-15 0.902056E-16
  --> max change:  dcmx=   1.2158E-02  dc/dt=   2.6706E-06 [mol/s]
 Maximum Pore Velocity:   7.5911E+00 [m/d]
 CFL Limiting ( 1.0):   1.0539E-01 ->   5.2693E-02 [d]

== REACTIVE TRANSPORT ==========================================================
  0 2r: 1.70E-03 2x: 0.00E+00 2u: 0.00E+00 ir: 2.66E-04 iu: 0.00E+00 rsn:   0
  1 2r: 4.14E-16 2x: 7.84E+00 2u: 7.65E-02 ir: 1.18E-16 iu: 1.21E-02 rsn: rtol

 Step     83 Time=  3.79040E+00 Dt=  5.26933E-02 [d] conv_reason: 3
  newton =   1 [      83] linear =     1 [        83] cuts =  0 [   0]
  --> SNES Linear/Non-Linear Iterations = 1 / 1
  --> SNES Residual: 0.413971E-15 0.413971E-15 0.117961E-15
  --> max change:  dcmx=   1.2118E-02  dc/dt=   2.6618E-06 [mol/s]
 Maximum Pore Velocity:   7.5911E+00 [m/d]
 CFL Limiting ( 1.0):   1.0539E-01 ->   5.2693E-02 [d]

== REACTIVE TRANSPORT ==========================================================
  0 2r: 1.68E-03 2x: 0.00E+00 2u: 0.00E+00 ir: 2.65E-04 iu: 0.00E+00 rsn:   0
  1 2r: 4.00E-16 2x: 7.89E+00 2u: 7.53E-02 ir: 1.25E-16 iu: 1.21E-02 rsn: rtol

 Step     84 Time=  3.84309E+00 Dt=  5.26933E-02 [d] conv_reason: 3
  newton =   1 [      84] linear =     1 [        84] cuts =  0 [   0]
  --> SNES Linear/Non-Linear Iterations = 1 / 1
  --> SNES Residual: 0.400116E-15 0.400116E-15 0.124900E-15
  --> max change:  dcmx=   1.2067E-02  dc/dt=   2.6505E-06 [mol/s]
 Maximum Pore Velocity:   7.5911E+00 [m/d]
 CFL Limiting ( 1.0):   1.0539E-01 ->   5.2693E-02 [d]

== REACTIVE TRANSPORT ==========================================================
  0 2r: 1.65E-03 2x: 0.00E+00 2u: 0.00E+00 ir: 2.64E-04 iu: 0.00E+00 rsn:   0
  1 2r: 3.68E-16 2x: 7.94E+00 2u: 7.40E-02 ir: 9.02E-17 iu: 1.20E-02 rsn: rtol

 Step     85 Time=  3.89579E+00 Dt=  5.26933E-02 [d] conv_reason: 3
  newton =   1 [      85] linear =     1 [        85] cuts =  0 [   0]
  --> SNES Linear/Non-Linear Iterations = 1 / 1
  --> SNES Residual: 0.368142E-15 0.368142E-15 0.902056E-16
  --> max change:  dcmx=   1.2005E-02  dc/dt=   2.6369E-06 [mol/s]
 Maximum Pore Velocity:   7.5911E+00 [m/d]
 CFL Limiting ( 1.0):   1.0539E-01 ->   5.2693E-02 [d]

== REACTIVE TRANSPORT ==========================================================
  0 2r: 1.62E-03 2x: 0.00E+00 2u: 0.00E+00 ir: 2.63E-04 iu: 0.00E+00 rsn:   0
  1 2r: 3.58E-16 2x: 7.98E+00 2u: 7.28E-02 ir: 9.37E-17 iu: 1.19E-02 rsn: rtol

 Step     86 Time=  3.94848E+00 Dt=  5.26933E-02 [d] conv_reason: 3
  newton =   1 [      86] linear =     1 [        86] cuts =  0 [   0]
  --> SNES Linear/Non-Linear Iterations = 1 / 1
  --> SNES Residual: 0.358236E-15 0.358236E-15 0.936751E-16
  --> max change:  dcmx=   1.1933E-02  dc/dt=   2.6211E-06 [mol/s]
 Maximum Pore Velocity:   7.5911E+00 [m/d]
 CFL Limiting ( 1.0):   1.0539E-01 ->   5.2693E-02 [d]

== REACTIVE TRANSPORT ==========================================================
  0 2r: 1.59E-03 2x: 0.00E+00 2u: 0.00E+00 ir: 2.61E-04 iu: 0.00E+00 rsn:   0
  1 2r: 3.70E-16 2x: 8.03E+00 2u: 7.00E-02 ir: 1.01E-16 iu: 1.16E-02 rsn: rtol

 Step     87 Time=  4.00000E+00 Dt=  5.15201E-02 [d] conv_reason: 3
  newton =   1 [      87] linear =     1 [        87] cuts =  0 [   0]
  --> SNES Linear/Non-Linear Iterations = 1 / 1
  --> SNES Residual: 0.370045E-15 0.370045E-15 0.100614E-15
  --> max change:  dcmx=   1.1589E-02  dc/dt=   2.6036E-06 [mol/s]
 Maximum Pore Velocity:   7.5911E+00 [m/d]
 CFL Limiting ( 1.0):   1.0304E-01 ->   5.2693E-02 [d]

 --> appending to hdf5 output file: 1D_solute.h5
      0.02 Seconds to write HDF5 file.
 --> write tecplot output file: 1D_solute-004.tec
      0.00 Seconds to write to Tecplot file(s)

== RICHARDS FLOW ===============================================================
  0 2r: 4.87E-16 2x: 0.00E+00 2u: 0.00E+00 ir: 1.48E-16 iu: 0.00E+00 rsn:   0
  1 2r: 4.87E-16 2x: 1.26E+06 2u: 6.12E-11 ir: 1.48E-16 iu: 1.44E-11 rsn: stol

 Step     20 Time=  5.00000E+00 Dt=  1.00000E+00 [d] conv_reason: 4
  newton =   1 [      22] linear =     1 [        22] cuts =  0 [   0]
  --> SNES Linear/Non-Linear Iterations = 1 / 1
  --> SNES Residual: 0.486615E-15 0.486615E-17 0.148319E-15
  --> max change: dpmx=   0.0000E+00

== REACTIVE TRANSPORT ==========================================================
  0 2r: 1.57E-03 2x: 0.00E+00 2u: 0.00E+00 ir: 2.60E-04 iu: 0.00E+00 rsn:   0
  1 2r: 4.24E-16 2x: 8.07E+00 2u: 7.03E-02 ir: 1.18E-16 iu: 1.18E-02 rsn: rtol

 Step     88 Time=  4.05269E+00 Dt=  5.26933E-02 [d] conv_reason: 3
  newton =   1 [      88] linear =     1 [        88] cuts =  0 [   0]
  --> SNES Linear/Non-Linear Iterations = 1 / 1
  --> SNES Residual: 0.424327E-15 0.424327E-15 0.117961E-15
  --> max change:  dcmx=   1.1763E-02  dc/dt=   2.5838E-06 [mol/s]
 Maximum Pore Velocity:   7.5911E+00 [m/d]
 CFL Limiting ( 1.0):   1.0539E-01 ->   5.2693E-02 [d]

== REACTIVE TRANSPORT ==========================================================
  0 2r: 1.54E-03 2x: 0.00E+00 2u: 0.00E+00 ir: 2.58E-04 iu: 0.00E+00 rsn:   0
  1 2r: 3.77E-16 2x: 8.12E+00 2u: 6.91E-02 ir: 9.02E-17 iu: 1.17E-02 rsn: rtol

 Step     89 Time=  4.10539E+00 Dt=  5.26933E-02 [d] conv_reason: 3
  newton =   1 [      89] linear =     1 [        89] cuts =  0 [   0]
  --> SNES Linear/Non-Linear Iterations = 1 / 1
  --> SNES Residual: 0.377126E-15 0.377126E-15 0.902056E-16
  --> max change:  dcmx=   1.1665E-02  dc/dt=   2.5621E-06 [mol/s]
 Maximum Pore Velocity:   7.5911E+00 [m/d]
 CFL Limiting ( 1.0):   1.0539E-01 ->   5.2693E-02 [d]

== REACTIVE TRANSPORT ==========================================================
  0 2r: 1.51E-03 2x: 0.00E+00 2u: 0.00E+00 ir: 2.55E-04 iu: 0.00E+00 rsn:   0
  1 2r: 4.16E-16 2x: 8.16E+00 2u: 6.78E-02 ir: 9.71E-17 iu: 1.16E-02 rsn: rtol

 Step     90 Time=  4.15808E+00 Dt=  5.26933E-02 [d] conv_reason: 3
  newton =   1 [      90] linear =     1 [        90] cuts =  0 [   0]
  --> SNES Linear/Non-Linear Iterations = 1 / 1
  --> SNES Residual: 0.416070E-15 0.416070E-15 0.971445E-16
  --> max change:  dcmx=   1.1558E-02  dc/dt=   2.5388E-06 [mol/s]
 Maximum Pore Velocity:   7.5911E+00 [m/d]
 CFL Limiting ( 1.0):   1.0539E-01 ->   5.2693E-02 [d]

== REACTIVE TRANSPORT ==========================================================
  0 2r: 1.49E-03 2x: 0.00E+00 2u: 0.00E+00 ir: 2.53E-04 iu: 0.00E+00 rsn:   0
  1 2r: 3.86E-16 2x: 8.21E+00 2u: 6.66E-02 ir: 1.04E-16 iu: 1.14E-02 rsn: rtol

 Step     91 Time=  4.21077E+00 Dt=  5.26933E-02 [d] conv_reason: 3
  newton =   1 [      91] linear =     1 [        91] cuts =  0 [   0]
  --> SNES Linear/Non-Linear Iterations = 1 / 1
  --> SNES Residual: 0.386162E-15 0.386162E-15 0.104083E-15
  --> max change:  dcmx=   1.1445E-02  dc/dt=   2.5139E-06 [mol/s]
 Maximum Pore Velocity:   7.5911E+00 [m/d]
 CFL Limiting ( 1.0):   1.0539E-01 ->   5.2693E-02 [d]

== REACTIVE TRANSPORT ==========================================================
  0 2r: 1.46E-03 2x: 0.00E+00 2u: 0.00E+00 ir: 2.51E-04 iu: 0.00E+00 rsn:   0
  1 2r: 3.46E-16 2x: 8.25E+00 2u: 6.54E-02 ir: 8.85E-17 iu: 1.13E-02 rsn: rtol

 Step     92 Time=  4.26347E+00 Dt=  5.26933E-02 [d] conv_reason: 3
  newton =   1 [      92] linear =     1 [        92] cuts =  0 [   0]
  --> SNES Linear/Non-Linear Iterations = 1 / 1
  --> SNES Residual: 0.346150E-15 0.346150E-15 0.884709E-16
[...]
  --> SNES Linear/Non-Linear Iterations = 1 / 1
  --> SNES Residual: 0.392293E-15 0.392293E-15 0.100614E-15
  --> max change:  dcmx=   1.7432E-03  dc/dt=   3.8289E-07 [mol/s]
 Maximum Pore Velocity:   7.5911E+00 [m/d]
 CFL Limiting ( 1.0):   1.0539E-01 ->   5.2693E-02 [d]

== REACTIVE TRANSPORT ==========================================================
  0 2r: 1.80E-04 2x: 0.00E+00 2u: 0.00E+00 ir: 3.82E-05 iu: 0.00E+00 rsn:   0
  1 2r: 4.22E-16 2x: 9.84E+00 2u: 7.99E-03 ir: 1.11E-16 iu: 1.69E-03 rsn: rtol

 Step    174 Time=  8.57963E+00 Dt=  5.26933E-02 [d] conv_reason: 3
  newton =   1 [     174] linear =     1 [       174] cuts =  0 [   0]
  --> SNES Linear/Non-Linear Iterations = 1 / 1
  --> SNES Residual: 0.422019E-15 0.422019E-15 0.111022E-15
  --> max change:  dcmx=   1.6941E-03  dc/dt=   3.7212E-07 [mol/s]
 Maximum Pore Velocity:   7.5911E+00 [m/d]
 CFL Limiting ( 1.0):   1.0539E-01 ->   5.2693E-02 [d]

== REACTIVE TRANSPORT ==========================================================
  0 2r: 1.75E-04 2x: 0.00E+00 2u: 0.00E+00 ir: 3.71E-05 iu: 0.00E+00 rsn:   0
  1 2r: 4.42E-16 2x: 9.85E+00 2u: 7.77E-03 ir: 1.32E-16 iu: 1.65E-03 rsn: rtol

 Step    175 Time=  8.63232E+00 Dt=  5.26933E-02 [d] conv_reason: 3
  newton =   1 [     175] linear =     1 [       175] cuts =  0 [   0]
  --> SNES Linear/Non-Linear Iterations = 1 / 1
  --> SNES Residual: 0.442487E-15 0.442487E-15 0.131839E-15
  --> max change:  dcmx=   1.6464E-03  dc/dt=   3.6163E-07 [mol/s]
 Maximum Pore Velocity:   7.5911E+00 [m/d]
 CFL Limiting ( 1.0):   1.0539E-01 ->   5.2693E-02 [d]

== REACTIVE TRANSPORT ==========================================================
  0 2r: 1.70E-04 2x: 0.00E+00 2u: 0.00E+00 ir: 3.61E-05 iu: 0.00E+00 rsn:   0
  1 2r: 3.71E-16 2x: 9.85E+00 2u: 7.54E-03 ir: 1.01E-16 iu: 1.60E-03 rsn: rtol

 Step    176 Time=  8.68501E+00 Dt=  5.26933E-02 [d] conv_reason: 3
  newton =   1 [     176] linear =     1 [       176] cuts =  0 [   0]
  --> SNES Linear/Non-Linear Iterations = 1 / 1
  --> SNES Residual: 0.370533E-15 0.370533E-15 0.100614E-15
  --> max change:  dcmx=   1.5999E-03  dc/dt=   3.5143E-07 [mol/s]
 Maximum Pore Velocity:   7.5911E+00 [m/d]
 CFL Limiting ( 1.0):   1.0539E-01 ->   5.2693E-02 [d]

== REACTIVE TRANSPORT ==========================================================
  0 2r: 1.65E-04 2x: 0.00E+00 2u: 0.00E+00 ir: 3.50E-05 iu: 0.00E+00 rsn:   0
  1 2r: 4.69E-16 2x: 9.86E+00 2u: 7.33E-03 ir: 1.25E-16 iu: 1.55E-03 rsn: rtol

 Step    177 Time=  8.73771E+00 Dt=  5.26933E-02 [d] conv_reason: 3
  newton =   1 [     177] linear =     1 [       177] cuts =  0 [   0]
  --> SNES Linear/Non-Linear Iterations = 1 / 1
  --> SNES Residual: 0.468632E-15 0.468632E-15 0.124900E-15
  --> max change:  dcmx=   1.5547E-03  dc/dt=   3.4149E-07 [mol/s]
 Maximum Pore Velocity:   7.5911E+00 [m/d]
 CFL Limiting ( 1.0):   1.0539E-01 ->   5.2693E-02 [d]

== REACTIVE TRANSPORT ==========================================================
  0 2r: 1.60E-04 2x: 0.00E+00 2u: 0.00E+00 ir: 3.41E-05 iu: 0.00E+00 rsn:   0
  1 2r: 4.29E-16 2x: 9.86E+00 2u: 7.11E-03 ir: 1.18E-16 iu: 1.51E-03 rsn: rtol

 Step    178 Time=  8.79040E+00 Dt=  5.26933E-02 [d] conv_reason: 3
  newton =   1 [     178] linear =     1 [       178] cuts =  0 [   0]
  --> SNES Linear/Non-Linear Iterations = 1 / 1
  --> SNES Residual: 0.428628E-15 0.428628E-15 0.117961E-15
  --> max change:  dcmx=   1.5107E-03  dc/dt=   3.3182E-07 [mol/s]
 Maximum Pore Velocity:   7.5911E+00 [m/d]
 CFL Limiting ( 1.0):   1.0539E-01 ->   5.2693E-02 [d]

== REACTIVE TRANSPORT ==========================================================
  0 2r: 1.56E-04 2x: 0.00E+00 2u: 0.00E+00 ir: 3.31E-05 iu: 0.00E+00 rsn:   0
  1 2r: 3.99E-16 2x: 9.87E+00 2u: 6.91E-03 ir: 1.28E-16 iu: 1.47E-03 rsn: rtol

 Step    179 Time=  8.84309E+00 Dt=  5.26933E-02 [d] conv_reason: 3
  newton =   1 [     179] linear =     1 [       179] cuts =  0 [   0]
  --> SNES Linear/Non-Linear Iterations = 1 / 1
  --> SNES Residual: 0.398730E-15 0.398730E-15 0.128370E-15
  --> max change:  dcmx=   1.4678E-03  dc/dt=   3.2241E-07 [mol/s]
 Maximum Pore Velocity:   7.5911E+00 [m/d]
 CFL Limiting ( 1.0):   1.0539E-01 ->   5.2693E-02 [d]

== REACTIVE TRANSPORT ==========================================================
  0 2r: 1.51E-04 2x: 0.00E+00 2u: 0.00E+00 ir: 3.21E-05 iu: 0.00E+00 rsn:   0
  1 2r: 4.22E-16 2x: 9.87E+00 2u: 6.71E-03 ir: 1.11E-16 iu: 1.43E-03 rsn: rtol

 Step    180 Time=  8.89579E+00 Dt=  5.26933E-02 [d] conv_reason: 3
  newton =   1 [     180] linear =     1 [       180] cuts =  0 [   0]
  --> SNES Linear/Non-Linear Iterations = 1 / 1
  --> SNES Residual: 0.421962E-15 0.421962E-15 0.111022E-15
  --> max change:  dcmx=   1.4261E-03  dc/dt=   3.1325E-07 [mol/s]
 Maximum Pore Velocity:   7.5911E+00 [m/d]
 CFL Limiting ( 1.0):   1.0539E-01 ->   5.2693E-02 [d]

== REACTIVE TRANSPORT ==========================================================
  0 2r: 1.47E-04 2x: 0.00E+00 2u: 0.00E+00 ir: 3.12E-05 iu: 0.00E+00 rsn:   0
  1 2r: 4.88E-16 2x: 9.88E+00 2u: 6.52E-03 ir: 1.14E-16 iu: 1.39E-03 rsn: rtol

 Step    181 Time=  8.94848E+00 Dt=  5.26933E-02 [d] conv_reason: 3
  newton =   1 [     181] linear =     1 [       181] cuts =  0 [   0]
  --> SNES Linear/Non-Linear Iterations = 1 / 1
  --> SNES Residual: 0.488157E-15 0.488157E-15 0.114492E-15
  --> max change:  dcmx=   1.3856E-03  dc/dt=   3.0434E-07 [mol/s]
 Maximum Pore Velocity:   7.5911E+00 [m/d]
 CFL Limiting ( 1.0):   1.0539E-01 ->   5.2693E-02 [d]

== REACTIVE TRANSPORT ==========================================================
  0 2r: 1.43E-04 2x: 0.00E+00 2u: 0.00E+00 ir: 3.03E-05 iu: 0.00E+00 rsn:   0
  1 2r: 3.70E-16 2x: 9.88E+00 2u: 6.19E-03 ir: 9.71E-17 iu: 1.32E-03 rsn: rtol

 Step    182 Time=  9.00000E+00 Dt=  5.15201E-02 [d] conv_reason: 3
  newton =   1 [     182] linear =     1 [       182] cuts =  0 [   0]
  --> SNES Linear/Non-Linear Iterations = 1 / 1
  --> SNES Residual: 0.370127E-15 0.370127E-15 0.971445E-16
  --> max change:  dcmx=   1.3170E-03  dc/dt=   2.9586E-07 [mol/s]
 Maximum Pore Velocity:   7.5911E+00 [m/d]
 CFL Limiting ( 1.0):   1.0304E-01 ->   5.2693E-02 [d]

 --> appending to hdf5 output file: 1D_solute.h5
      0.02 Seconds to write HDF5 file.
 --> write tecplot output file: 1D_solute-009.tec
      0.01 Seconds to write to Tecplot file(s)

== RICHARDS FLOW ===============================================================
  0 2r: 4.87E-16 2x: 0.00E+00 2u: 0.00E+00 ir: 1.48E-16 iu: 0.00E+00 rsn:   0
  1 2r: 4.87E-16 2x: 1.26E+06 2u: 6.12E-11 ir: 1.48E-16 iu: 1.44E-11 rsn: stol

 Step     25 Time=  1.00000E+01 Dt=  1.00000E+00 [d] conv_reason: 4
  newton =   1 [      27] linear =     1 [        27] cuts =  0 [   0]
  --> SNES Linear/Non-Linear Iterations = 1 / 1
  --> SNES Residual: 0.486615E-15 0.486615E-17 0.148319E-15
  --> max change: dpmx=   0.0000E+00

== REACTIVE TRANSPORT ==========================================================
  0 2r: 1.39E-04 2x: 0.00E+00 2u: 0.00E+00 ir: 2.95E-05 iu: 0.00E+00 rsn:   0
  1 2r: 4.13E-16 2x: 9.89E+00 2u: 6.15E-03 ir: 9.37E-17 iu: 1.31E-03 rsn: rtol

 Step    183 Time=  9.05269E+00 Dt=  5.26933E-02 [d] conv_reason: 3
  newton =   1 [     183] linear =     1 [       183] cuts =  0 [   0]
  --> SNES Linear/Non-Linear Iterations = 1 / 1
  --> SNES Residual: 0.412806E-15 0.412806E-15 0.936751E-16
  --> max change:  dcmx=   1.3085E-03  dc/dt=   2.8742E-07 [mol/s]
 Maximum Pore Velocity:   7.5911E+00 [m/d]
 CFL Limiting ( 1.0):   1.0539E-01 ->   5.2693E-02 [d]

== REACTIVE TRANSPORT ==========================================================
  0 2r: 1.35E-04 2x: 0.00E+00 2u: 0.00E+00 ir: 2.87E-05 iu: 0.00E+00 rsn:   0
  1 2r: 4.66E-16 2x: 9.89E+00 2u: 5.97E-03 ir: 1.32E-16 iu: 1.27E-03 rsn: rtol

 Step    184 Time=  9.10539E+00 Dt=  5.26933E-02 [d] conv_reason: 3
  newton =   1 [     184] linear =     1 [       184] cuts =  0 [   0]
  --> SNES Linear/Non-Linear Iterations = 1 / 1
  --> SNES Residual: 0.466018E-15 0.466018E-15 0.131839E-15
  --> max change:  dcmx=   1.2712E-03  dc/dt=   2.7921E-07 [mol/s]
 Maximum Pore Velocity:   7.5911E+00 [m/d]
 CFL Limiting ( 1.0):   1.0539E-01 ->   5.2693E-02 [d]

== REACTIVE TRANSPORT ==========================================================
  0 2r: 1.31E-04 2x: 0.00E+00 2u: 0.00E+00 ir: 2.78E-05 iu: 0.00E+00 rsn:   0
  1 2r: 4.35E-16 2x: 9.89E+00 2u: 5.80E-03 ir: 1.35E-16 iu: 1.23E-03 rsn: rtol

 Step    185 Time=  9.15808E+00 Dt=  5.26933E-02 [d] conv_reason: 3
  newton =   1 [     185] linear =     1 [       185] cuts =  0 [   0]
  --> SNES Linear/Non-Linear Iterations = 1 / 1
  --> SNES Residual: 0.435412E-15 0.435412E-15 0.135308E-15
  --> max change:  dcmx=   1.2348E-03  dc/dt=   2.7122E-07 [mol/s]
 Maximum Pore Velocity:   7.5911E+00 [m/d]
 CFL Limiting ( 1.0):   1.0539E-01 ->   5.2693E-02 [d]

== REACTIVE TRANSPORT ==========================================================
  0 2r: 1.27E-04 2x: 0.00E+00 2u: 0.00E+00 ir: 2.70E-05 iu: 0.00E+00 rsn:   0
  1 2r: 3.85E-16 2x: 9.90E+00 2u: 5.63E-03 ir: 9.02E-17 iu: 1.20E-03 rsn: rtol

 Step    186 Time=  9.21077E+00 Dt=  5.26933E-02 [d] conv_reason: 3
  newton =   1 [     186] linear =     1 [       186] cuts =  0 [   0]
  --> SNES Linear/Non-Linear Iterations = 1 / 1
  --> SNES Residual: 0.385437E-15 0.385437E-15 0.902056E-16
  --> max change:  dcmx=   1.1994E-03  dc/dt=   2.6345E-07 [mol/s]
 Maximum Pore Velocity:   7.5911E+00 [m/d]
 CFL Limiting ( 1.0):   1.0539E-01 ->   5.2693E-02 [d]

== REACTIVE TRANSPORT ==========================================================
  0 2r: 1.23E-04 2x: 0.00E+00 2u: 0.00E+00 ir: 2.63E-05 iu: 0.00E+00 rsn:   0
  1 2r: 4.46E-16 2x: 9.90E+00 2u: 5.47E-03 ir: 9.71E-17 iu: 1.17E-03 rsn: rtol

 Step    187 Time=  9.26347E+00 Dt=  5.26933E-02 [d] conv_reason: 3
  newton =   1 [     187] linear =     1 [       187] cuts =  0 [   0]
  --> SNES Linear/Non-Linear Iterations = 1 / 1
  --> SNES Residual: 0.446333E-15 0.446333E-15 0.971445E-16
  --> max change:  dcmx=   1.1650E-03  dc/dt=   2.5590E-07 [mol/s]
 Maximum Pore Velocity:   7.5911E+00 [m/d]
 CFL Limiting ( 1.0):   1.0539E-01 ->   5.2693E-02 [d]

== REACTIVE TRANSPORT ==========================================================
  0 2r: 1.20E-04 2x: 0.00E+00 2u: 0.00E+00 ir: 2.55E-05 iu: 0.00E+00 rsn:   0
  1 2r: 5.02E-16 2x: 9.91E+00 2u: 5.31E-03 ir: 1.14E-16 iu: 1.13E-03 rsn: rtol

 Step    188 Time=  9.31616E+00 Dt=  5.26933E-02 [d] conv_reason: 3
  newton =   1 [     188] linear =     1 [       188] cuts =  0 [   0]
  --> SNES Linear/Non-Linear Iterations = 1 / 1
  --> SNES Residual: 0.501908E-15 0.501908E-15 0.114492E-15
  --> max change:  dcmx=   1.1316E-03  dc/dt=   2.4855E-07 [mol/s]
 Maximum Pore Velocity:   7.5911E+00 [m/d]
 CFL Limiting ( 1.0):   1.0539E-01 ->   5.2693E-02 [d]

== REACTIVE TRANSPORT ==========================================================
  0 2r: 1.16E-04 2x: 0.00E+00 2u: 0.00E+00 ir: 2.48E-05 iu: 0.00E+00 rsn:   0
  1 2r: 4.54E-16 2x: 9.91E+00 2u: 5.15E-03 ir: 1.25E-16 iu: 1.10E-03 rsn: rtol

 Step    189 Time=  9.36885E+00 Dt=  5.26933E-02 [d] conv_reason: 3
  newton =   1 [     189] linear =     1 [       189] cuts =  0 [   0]
  --> SNES Linear/Non-Linear Iterations = 1 / 1
  --> SNES Residual: 0.453968E-15 0.453968E-15 0.124900E-15
  --> max change:  dcmx=   1.0990E-03  dc/dt=   2.4140E-07 [mol/s]
 Maximum Pore Velocity:   7.5911E+00 [m/d]
 CFL Limiting ( 1.0):   1.0539E-01 ->   5.2693E-02 [d]

== REACTIVE TRANSPORT ==========================================================
  0 2r: 1.13E-04 2x: 0.00E+00 2u: 0.00E+00 ir: 2.41E-05 iu: 0.00E+00 rsn:   0
  1 2r: 4.80E-16 2x: 9.91E+00 2u: 5.00E-03 ir: 1.32E-16 iu: 1.07E-03 rsn: rtol

 Step    190 Time=  9.42155E+00 Dt=  5.26933E-02 [d] conv_reason: 3
  newton =   1 [     190] linear =     1 [       190] cuts =  0 [   0]
  --> SNES Linear/Non-Linear Iterations = 1 / 1
  --> SNES Residual: 0.479989E-15 0.479989E-15 0.131839E-15
  --> max change:  dcmx=   1.0674E-03  dc/dt=   2.3446E-07 [mol/s]
 Maximum Pore Velocity:   7.5911E+00 [m/d]
 CFL Limiting ( 1.0):   1.0539E-01 ->   5.2693E-02 [d]

== REACTIVE TRANSPORT ==========================================================
  0 2r: 1.10E-04 2x: 0.00E+00 2u: 0.00E+00 ir: 2.34E-05 iu: 0.00E+00 rsn:   0
  1 2r: 4.09E-16 2x: 9.92E+00 2u: 4.86E-03 ir: 1.11E-16 iu: 1.04E-03 rsn: rtol

 Step    191 Time=  9.47424E+00 Dt=  5.26933E-02 [d] conv_reason: 3
  newton =   1 [     191] linear =     1 [       191] cuts =  0 [   0]
  --> SNES Linear/Non-Linear Iterations = 1 / 1
  --> SNES Residual: 0.409307E-15 0.409307E-15 0.111022E-15
  --> max change:  dcmx=   1.0366E-03  dc/dt=   2.2770E-07 [mol/s]
 Maximum Pore Velocity:   7.5911E+00 [m/d]
 CFL Limiting ( 1.0):   1.0539E-01 ->   5.2693E-02 [d]

== REACTIVE TRANSPORT ==========================================================
  0 2r: 1.06E-04 2x: 0.00E+00 2u: 0.00E+00 ir: 2.27E-05 iu: 0.00E+00 rsn:   0
  1 2r: 4.11E-16 2x: 9.92E+00 2u: 4.71E-03 ir: 9.71E-17 iu: 1.01E-03 rsn: rtol

 Step    192 Time=  9.52693E+00 Dt=  5.26933E-02 [d] conv_reason: 3
  newton =   1 [     192] linear =     1 [       192] cuts =  0 [   0]
  --> SNES Linear/Non-Linear Iterations = 1 / 1
  --> SNES Residual: 0.411097E-15 0.411097E-15 0.971445E-16
  --> max change:  dcmx=   1.0067E-03  dc/dt=   2.2113E-07 [mol/s]
 Maximum Pore Velocity:   7.5911E+00 [m/d]
 CFL Limiting ( 1.0):   1.0539E-01 ->   5.2693E-02 [d]

== REACTIVE TRANSPORT ==========================================================
  0 2r: 1.03E-04 2x: 0.00E+00 2u: 0.00E+00 ir: 2.21E-05 iu: 0.00E+00 rsn:   0
  1 2r: 4.00E-16 2x: 9.92E+00 2u: 4.58E-03 ir: 1.32E-16 iu: 9.78E-04 rsn: rtol

 Step    193 Time=  9.57963E+00 Dt=  5.26933E-02 [d] conv_reason: 3
  newton =   1 [     193] linear =     1 [       193] cuts =  0 [   0]
  --> SNES Linear/Non-Linear Iterations = 1 / 1
  --> SNES Residual: 0.400236E-15 0.400236E-15 0.131839E-15
  --> max change:  dcmx=   9.7767E-04  dc/dt=   2.1474E-07 [mol/s]
 Maximum Pore Velocity:   7.5911E+00 [m/d]
 CFL Limiting ( 1.0):   1.0539E-01 ->   5.2693E-02 [d]

== REACTIVE TRANSPORT ==========================================================
  0 2r: 1.00E-04 2x: 0.00E+00 2u: 0.00E+00 ir: 2.14E-05 iu: 0.00E+00 rsn:   0
  1 2r: 4.39E-16 2x: 9.93E+00 2u: 4.44E-03 ir: 1.42E-16 iu: 9.49E-04 rsn: rtol

 Step    194 Time=  9.63232E+00 Dt=  5.26933E-02 [d] conv_reason: 3
  newton =   1 [     194] linear =     1 [       194] cuts =  0 [   0]
  --> SNES Linear/Non-Linear Iterations = 1 / 1
  --> SNES Residual: 0.438607E-15 0.438607E-15 0.142247E-15
  --> max change:  dcmx=   9.4941E-04  dc/dt=   2.0854E-07 [mol/s]
 Maximum Pore Velocity:   7.5911E+00 [m/d]
 CFL Limiting ( 1.0):   1.0539E-01 ->   5.2693E-02 [d]

== REACTIVE TRANSPORT ==========================================================
  0 2r: 9.73E-05 2x: 0.00E+00 2u: 0.00E+00 ir: 2.08E-05 iu: 0.00E+00 rsn:   0
  1 2r: 3.66E-16 2x: 9.93E+00 2u: 4.31E-03 ir: 1.01E-16 iu: 9.22E-04 rsn: rtol

 Step    195 Time=  9.68501E+00 Dt=  5.26933E-02 [d] conv_reason: 3
  newton =   1 [     195] linear =     1 [       195] cuts =  0 [   0]
  --> SNES Linear/Non-Linear Iterations = 1 / 1
  --> SNES Residual: 0.366006E-15 0.366006E-15 0.100614E-15
  --> max change:  dcmx=   9.2193E-04  dc/dt=   2.0250E-07 [mol/s]
 Maximum Pore Velocity:   7.5911E+00 [m/d]
 CFL Limiting ( 1.0):   1.0539E-01 ->   5.2693E-02 [d]

== REACTIVE TRANSPORT ==========================================================
  0 2r: 9.45E-05 2x: 0.00E+00 2u: 0.00E+00 ir: 2.02E-05 iu: 0.00E+00 rsn:   0
  1 2r: 4.03E-16 2x: 9.93E+00 2u: 4.19E-03 ir: 9.71E-17 iu: 8.95E-04 rsn: rtol

 Step    196 Time=  9.73771E+00 Dt=  5.26933E-02 [d] conv_reason: 3
  newton =   1 [     196] linear =     1 [       196] cuts =  0 [   0]
  --> SNES Linear/Non-Linear Iterations = 1 / 1
  --> SNES Residual: 0.402680E-15 0.402680E-15 0.971445E-16
  --> max change:  dcmx=   8.9523E-04  dc/dt=   1.9664E-07 [mol/s]
 Maximum Pore Velocity:   7.5911E+00 [m/d]
 CFL Limiting ( 1.0):   1.0539E-01 ->   5.2693E-02 [d]

== REACTIVE TRANSPORT ==========================================================
  0 2r: 9.17E-05 2x: 0.00E+00 2u: 0.00E+00 ir: 1.96E-05 iu: 0.00E+00 rsn:   0
  1 2r: 3.64E-16 2x: 9.94E+00 2u: 4.06E-03 ir: 8.33E-17 iu: 8.69E-04 rsn: rtol

 Step    197 Time=  9.79040E+00 Dt=  5.26933E-02 [d] conv_reason: 3
  newton =   1 [     197] linear =     1 [       197] cuts =  0 [   0]
  --> SNES Linear/Non-Linear Iterations = 1 / 1
  --> SNES Residual: 0.364143E-15 0.364143E-15 0.832667E-16
  --> max change:  dcmx=   8.6927E-04  dc/dt=   1.9093E-07 [mol/s]
 Maximum Pore Velocity:   7.5911E+00 [m/d]
 CFL Limiting ( 1.0):   1.0539E-01 ->   5.2693E-02 [d]

== REACTIVE TRANSPORT ==========================================================
  0 2r: 8.90E-05 2x: 0.00E+00 2u: 0.00E+00 ir: 1.90E-05 iu: 0.00E+00 rsn:   0
  1 2r: 4.37E-16 2x: 9.94E+00 2u: 3.95E-03 ir: 1.25E-16 iu: 8.44E-04 rsn: rtol

 Step    198 Time=  9.84309E+00 Dt=  5.26933E-02 [d] conv_reason: 3
  newton =   1 [     198] linear =     1 [       198] cuts =  0 [   0]
  --> SNES Linear/Non-Linear Iterations = 1 / 1
  --> SNES Residual: 0.436806E-15 0.436806E-15 0.124900E-15
  --> max change:  dcmx=   8.4404E-04  dc/dt=   1.8539E-07 [mol/s]
 Maximum Pore Velocity:   7.5911E+00 [m/d]
 CFL Limiting ( 1.0):   1.0539E-01 ->   5.2693E-02 [d]

== REACTIVE TRANSPORT ==========================================================
  0 2r: 8.64E-05 2x: 0.00E+00 2u: 0.00E+00 ir: 1.85E-05 iu: 0.00E+00 rsn:   0
  1 2r: 3.88E-16 2x: 9.94E+00 2u: 3.83E-03 ir: 7.29E-17 iu: 8.20E-04 rsn: rtol

 Step    199 Time=  9.89579E+00 Dt=  5.26933E-02 [d] conv_reason: 3
  newton =   1 [     199] linear =     1 [       199] cuts =  0 [   0]
  --> SNES Linear/Non-Linear Iterations = 1 / 1
  --> SNES Residual: 0.387601E-15 0.387601E-15 0.728584E-16
  --> max change:  dcmx=   8.1952E-04  dc/dt=   1.8001E-07 [mol/s]
 Maximum Pore Velocity:   7.5911E+00 [m/d]
 CFL Limiting ( 1.0):   1.0539E-01 ->   5.2693E-02 [d]

== REACTIVE TRANSPORT ==========================================================
  0 2r: 8.39E-05 2x: 0.00E+00 2u: 0.00E+00 ir: 1.79E-05 iu: 0.00E+00 rsn:   0
  1 2r: 4.24E-16 2x: 9.94E+00 2u: 3.72E-03 ir: 1.18E-16 iu: 7.96E-04 rsn: rtol

 Step    200 Time=  9.94848E+00 Dt=  5.26933E-02 [d] conv_reason: 3
  newton =   1 [     200] linear =     1 [       200] cuts =  0 [   0]
  --> SNES Linear/Non-Linear Iterations = 1 / 1
  --> SNES Residual: 0.424253E-15 0.424253E-15 0.117961E-15
  --> max change:  dcmx=   7.9569E-04  dc/dt=   1.7477E-07 [mol/s]
 Maximum Pore Velocity:   7.5911E+00 [m/d]
 CFL Limiting ( 1.0):   1.0539E-01 ->   5.2693E-02 [d]

== REACTIVE TRANSPORT ==========================================================
  0 2r: 8.14E-05 2x: 0.00E+00 2u: 0.00E+00 ir: 1.74E-05 iu: 0.00E+00 rsn:   0
  1 2r: 4.55E-16 2x: 9.95E+00 2u: 3.53E-03 ir: 1.53E-16 iu: 7.56E-04 rsn: rtol

 Step    201 Time=  1.00000E+01 Dt=  5.15201E-02 [d] conv_reason: 3
  newton =   1 [     201] linear =     1 [       201] cuts =  0 [   0]
  --> SNES Linear/Non-Linear Iterations = 1 / 1
  --> SNES Residual: 0.455437E-15 0.455437E-15 0.152656E-15
  --> max change:  dcmx=   7.5582E-04  dc/dt=   1.6980E-07 [mol/s]
 Maximum Pore Velocity:   7.5911E+00 [m/d]
 CFL Limiting ( 1.0):   1.0304E-01 ->   5.2693E-02 [d]

 --> appending to hdf5 output file: 1D_solute.h5
      0.02 Seconds to write HDF5 file.
 --> write tecplot output file: 1D_solute-010.tec
      0.01 Seconds to write to Tecplot file(s)

PMCSubsurfaceFlow
 Total Time: 7.4986E-02 seconds

 FLOW TS SNES steps = 25  newton = 27  linear = 27  cuts = 0
 FLOW TS SNES Wasted Linear Iterations = 0
 FLOW TS SNES Wasted Newton Iterations = 0
 FLOW TS SNES time = 0.1 seconds

PMCSubsurfaceTransport
 Total Time: 3.5677E-01 seconds

 TRAN TS SNES steps = 201  newton = 201  linear = 201  cuts = 0
 TRAN TS SNES Wasted Linear Iterations = 0
 TRAN TS SNES Wasted Newton Iterations = 0
 TRAN TS SNES time = 0.3 seconds

 Wall Clock Time:  1.0257E+00 [sec]   1.7095E-02 [min]   2.8491E-04 [hr]
