
=================
  PFLOTRAN v6.0
=================

"grid_structured_type" set to default value.
pflotran card:: NUMERICAL_METHODS
pflotran card:: NUMERICAL_METHODS
pflotran card:: CHEMISTRY
pflotran card:: GRID
pflotran card:: FLUID_PROPERTY
"FLUID_PROPERTY,diffusion_coefficient units" set to default value.
pflotran card:: MATERIAL_PROPERTY
  Name :: soil1
pflotran card:: CHARACTERISTIC_CURVES
  Name :: default
 WARNING: Mualem-van Genuchten relative permeability function is being used without SMOOTH option.
pflotran card:: OUTPUT
"OUTPUT,FORMAT,HDF5,# FILES" set to default value.
pflotran card:: TIME
pflotran card:: REGION
all
pflotran card:: REGION
west
pflotran card:: REGION
east
pflotran card:: REGION
middle
pflotran card:: OBSERVATION
pflotran card:: FLOW_CONDITION
initial
pflotran card:: FLOW_CONDITION
inlet
pflotran card:: FLOW_CONDITION
outlet
pflotran card:: TRANSPORT_CONDITION
initial
pflotran card:: TRANSPORT_CONDITION
inlet
pflotran card:: CONSTRAINT
initial
Constraint Species: Tracer
pflotran card:: CONSTRAINT
inlet
Constraint Species: Tracer
pflotran card:: INITIAL_CONDITION
"Initial Condition name" set to default value.
pflotran card:: BOUNDARY_CONDITION
pflotran card:: BOUNDARY_CONDITION
pflotran card:: STRATA
pflotran card:: END_SUBSURFACE
--------------------------------------------------------------------------------

     1  Primary Species

              Tracer              

     0  Secondary Complex Species



     0  Active Gas Species



     0  Passive Gas Species



     0  Reference Minerals



     0  Kinetic Mineral Reactions



     0  Ion Exchange Reactions

     0  Ion Exchange Cations
--------------------------------------------------------------------------------

Extent of Gridded Domain
 X: 0.000000E+00 - 4.000000E+01
 Y: 0.000000E+00 - 1.000000E+00
 Z: 0.000000E+00 - 1.000000E+00

Size of Gridded Domain
 Number of grid cells: 100

Number of active grid cells: 100
Number of inactive grid cells: 0

  Setting up TRAN Realization
  Finished setting up TRAN Realization

=+=+=+=+=+=+=+=+=+=+=+=+=+=+=+=+=+=+=+=+=+=+=+=+=+=+=+=+=+=+=+=+=+=+=+=+=+=+=+=+

  Initial Condition

--------------------------------------------------------------------------------
          Flow Condition:   initial
     Transport Condition:   initial
                  Region:   all
--------------------------------------------------------------------------------

  Flow Condition: initial
    Synchronize time with update: no
    Time units: yr
    Length units: m
      Datum:
        Dataset: Unnamed Ascii Dataset
          Type: dataset_ascii_type
          Transient: no
          Array Rank:  3

    Sub Condition: pressure
      Type: hydrostatic
      Gradient:
        Dataset: Unnamed Ascii Dataset
          Type: dataset_ascii_type
          Transient: no
          Array Rank:  3
      Data:
        Dataset: Unnamed Ascii Dataset
          Type: dataset_ascii_type
          Transient: no
          Array Rank:  1

--------------------------------------------------------------------------------

  Transport Condition: initial

  Constraint: initial

  species       molality
  Tracer        1.0028E-20


--------------------------------------------------------------------------------

=+=+=+=+=+=+=+=+=+=+=+=+=+=+=+=+=+=+=+=+=+=+=+=+=+=+=+=+=+=+=+=+=+=+=+=+=+=+=+=+

  Boundary Condition

--------------------------------------------------------------------------------
          Flow Condition:   inlet
     Transport Condition:   inlet
                  Region:   west
--------------------------------------------------------------------------------

  Flow Condition: inlet
    Synchronize time with update: no
    Time units: yr
    Length units: m
      Datum:
        Dataset: Unnamed Ascii Dataset
          Type: dataset_ascii_type
          Transient: no
          Array Rank:  3

    Sub Condition: pressure
      Type: hydrostatic
      Gradient:
      Data:
        Dataset: Unnamed Ascii Dataset
          Type: dataset_ascii_type
          Transient: no
          Array Rank:  1

--------------------------------------------------------------------------------

  Transport Condition: inlet

  Constraint: inlet

  species       molality
  Tracer        1.0028E+00


--------------------------------------------------------------------------------

=+=+=+=+=+=+=+=+=+=+=+=+=+=+=+=+=+=+=+=+=+=+=+=+=+=+=+=+=+=+=+=+=+=+=+=+=+=+=+=+

  Boundary Condition

--------------------------------------------------------------------------------
          Flow Condition:   outlet
     Transport Condition:   initial
                  Region:   east
--------------------------------------------------------------------------------

  Flow Condition: outlet
    Synchronize time with update: no
    Time units: yr
    Length units: m
      Datum:
        Dataset: Unnamed Ascii Dataset
          Type: dataset_ascii_type
          Transient: no
          Array Rank:  3

    Sub Condition: pressure
      Type: hydrostatic
      Gradient:
      Data:
        Dataset: Unnamed Ascii Dataset
          Type: dataset_ascii_type
          Transient: no
          Array Rank:  1

--------------------------------------------------------------------------------

  Transport Condition: initial

  Constraint: initial

  species       molality
  Tracer        1.0028E-20


--------------------------------------------------------------------------------
Default HDF5 method is used in Initialization
  Beginning setup of FLOW SNES
 number of dofs =   1, number of phases =   1
 mode = Richards: p
  Finished setting up FLOW SNES
mode = Reactive Transport
  Beginning setup of TRAN SNES
  Finished setting up TRAN SNES

 Requested processors and decomposition =     1, npx,y,z=   -1  -1  -1
 Actual decomposition: npx,y,z=    1   1   1


FLOW Time Stepper SNES
      maximum number of steps: 999999
constant time steps threshold: 5
       maximum number of cuts: 16
             reduction factor: 5.000000E-01
        maximum growth factor: 2.000000E+00
                 acceleration: on
       acceleration threshold: 5
       number of ramp entries: 5
                ramp entry #1: 2.0000
                ramp entry #2: 2.0000
                ramp entry #3: 2.0000
                ramp entry #4: 2.0000
                ramp entry #5: 2.0000
                ramp entry #6: 1.8000
                ramp entry #7: 1.6000
                ramp entry #8: 1.4000
                ramp entry #9: 1.2000
               ramp entry #10: 1.0000
               ramp entry #11: 1.0000
               ramp entry #12: 1.0000
               ramp entry #13: 1.0000

FLOW Newton Solver
                         atol: 1.000000E-50
                         rtol: 1.000000E-08
                         stol: 1.000000E-08
                         dtol: 1.000000E+04
                      maxnorm: 1.000000E+20
                    inftolres: -9.990000E+02
                    inftolupd: -9.990000E+02
                 inftolrelupd: -9.990000E+02
                 inftolsclres: -9.990000E+02
                     max iter: 50
                     min iter: 1
                         maxf: 10000
                  matrix type: baij
         precond. matrix type: baij
               inexact newton: off
            print convergence: on
   print detailed convergence: off
          check infinity norm: on

FLOW Linear Solver
                       solver: bcgs
               preconditioner: ilu
                         atol: 1.000000E-50
                         rtol: 1.000000E-05
                         dtol: 1.000000E+04
            maximum iteration: 10000

TRAN Time Stepper SNES
      maximum number of steps: 999999
constant time steps threshold: 5
       maximum number of cuts: 16
             reduction factor: 5.000000E-01
        maximum growth factor: 2.000000E+00
                 acceleration: on
       acceleration threshold: 5
       number of ramp entries: 5
                ramp entry #1: 2.0000
                ramp entry #2: 2.0000
                ramp entry #3: 2.0000
                ramp entry #4: 2.0000
                ramp entry #5: 2.0000
                ramp entry #6: 1.8000
                ramp entry #7: 1.6000
                ramp entry #8: 1.4000
                ramp entry #9: 1.2000
               ramp entry #10: 1.0000
               ramp entry #11: 1.0000
               ramp entry #12: 1.0000
               ramp entry #13: 1.0000

TRAN Newton Solver
                         atol: 1.000000E-50
                         rtol: 1.000000E-08
                         stol: 1.000000E-08
                         dtol: 1.000000E+04
                      maxnorm: 1.000000E+20
                    inftolres: -9.990000E+02
                    inftolupd: -9.990000E+02
                 inftolrelupd: -9.990000E+02
                 inftolsclres: -9.990000E+02
                     max iter: 50
                     min iter: 1
                         maxf: 10000
                  matrix type: baij
         precond. matrix type: baij
               inexact newton: off
            print convergence: on
   print detailed convergence: off
          check infinity norm: on

TRAN Linear Solver
                       solver: bcgs
               preconditioner: ilu
                         atol: 1.000000E-50
                         rtol: 1.000000E-05
                         dtol: 1.000000E+04
            maximum iteration: 10000

 Finished Initialization


== RICHARDS FLOW ===============================================================
  0 2r: 2.68E-05 2x: 0.00E+00 2u: 0.00E+00 ir: 2.68E-05 iu: 0.00E+00 rsn:   0
  1 2r: 4.24E-15 2x: 1.26E+06 2u: 1.94E+00 ir: 1.11E-15 iu: 4.27E-01 rsn: rtol

 Step      1 Time=  4.16667E-05 Dt=  4.16667E-05 [d] conv_reason: 3
  newton =   1 [       1] linear =     1 [         1] cuts =  0 [   0]
  --> SNES Linear/Non-Linear Iterations = 1 / 1
  --> SNES Residual: 0.423634E-14 0.423634E-16 0.111022E-14
  --> max change: dpmx=   4.2690E-01

== REACTIVE TRANSPORT ==========================================================
  0 2r: 4.61E+00 2x: 0.00E+00 2u: 0.00E+00 ir: 4.61E+00 iu: 0.00E+00 rsn:   0
  1 2r: 8.90E-16 2x: 1.35E-01 2u: 1.35E-01 ir: 8.88E-16 iu: 1.34E-01 rsn: rtol

 Step      1 Time=  4.16667E-05 Dt=  4.16667E-05 [d] conv_reason: 3
  newton =   1 [       1] linear =     1 [         1] cuts =  0 [   0]
  --> SNES Linear/Non-Linear Iterations = 1 / 1
  --> SNES Residual: 0.889918E-15 0.889918E-15 0.888178E-15
  --> max change:  dcmx=   1.3438E-01  dc/dt=   3.7327E-02 [mol/s]
 Maximum Pore Velocity:   7.5911E+01 [m/d]

== RICHARDS FLOW ===============================================================
  0 2r: 1.35E-09 2x: 0.00E+00 2u: 0.00E+00 ir: 2.96E-10 iu: 0.00E+00 rsn:   0
  1 2r: 4.44E-15 2x: 1.26E+06 2u: 2.71E-02 ir: 1.33E-15 iu: 3.83E-03 rsn:   0
  2 2r: 4.13E-15 2x: 1.26E+06 2u: 5.67E-09 ir: 1.11E-15 iu: 8.56E-10 rsn: stol

 Step      2 Time=  1.25000E-04 Dt=  8.33333E-05 [d] conv_reason: 4
  newton =   2 [       3] linear =     2 [         3] cuts =  0 [   0]
  --> SNES Linear/Non-Linear Iterations = 2 / 2
  --> SNES Residual: 0.413027E-14 0.413027E-16 0.111022E-14
  --> max change: dpmx=   3.8328E-03

== REACTIVE TRANSPORT ==========================================================
  0 2r: 3.73E+00 2x: 0.00E+00 2u: 0.00E+00 ir: 3.72E+00 iu: 0.00E+00 rsn:   0
  1 2r: 8.89E-16 2x: 3.23E-01 2u: 1.89E-01 ir: 8.88E-16 iu: 1.85E-01 rsn: rtol

 Step      2 Time=  1.25000E-04 Dt=  8.33333E-05 [d] conv_reason: 3
  newton =   1 [       2] linear =     1 [         2] cuts =  0 [   0]
  --> SNES Linear/Non-Linear Iterations = 1 / 1
  --> SNES Residual: 0.888614E-15 0.888614E-15 0.888178E-15
  --> max change:  dcmx=   1.8459E-01  dc/dt=   2.5637E-02 [mol/s]
 Maximum Pore Velocity:   7.5911E+01 [m/d]

== RICHARDS FLOW ===============================================================
  0 2r: 9.39E-12 2x: 0.00E+00 2u: 0.00E+00 ir: 1.33E-12 iu: 0.00E+00 rsn:   0
  1 2r: 5.28E-15 2x: 1.26E+06 2u: 2.98E-04 ir: 1.61E-15 iu: 4.20E-05 rsn: stol

 Step      3 Time=  2.91667E-04 Dt=  1.66667E-04 [d] conv_reason: 4
  newton =   1 [       4] linear =     1 [         4] cuts =  0 [   0]
  --> SNES Linear/Non-Linear Iterations = 1 / 1
  --> SNES Residual: 0.528203E-14 0.528203E-16 0.160982E-14
  --> max change: dpmx=   4.2028E-05

== REACTIVE TRANSPORT ==========================================================
  0 2r: 2.62E+00 2x: 0.00E+00 2u: 0.00E+00 ir: 2.56E+00 iu: 0.00E+00 rsn:   0
  1 2r: 1.35E-15 2x: 5.42E-01 2u: 2.25E-01 ir: 1.33E-15 iu: 2.02E-01 rsn: rtol

 Step      3 Time=  2.91667E-04 Dt=  1.66667E-04 [d] conv_reason: 3
  newton =   1 [       3] linear =     1 [         3] cuts =  0 [   0]
  --> SNES Linear/Non-Linear Iterations = 1 / 1
  --> SNES Residual: 0.135094E-14 0.135094E-14 0.133227E-14
  --> max change:  dcmx=   2.0171E-01  dc/dt=   1.4007E-02 [mol/s]
 Maximum Pore Velocity:   7.5911E+01 [m/d]

== RICHARDS FLOW ===============================================================
  0 2r: 5.19E-14 2x: 0.00E+00 2u: 0.00E+00 ir: 7.77E-15 iu: 0.00E+00 rsn:   0
  1 2r: 5.69E-15 2x: 1.26E+06 2u: 1.68E-06 ir: 1.55E-15 iu: 2.37E-07 rsn: stol

 Step      4 Time=  6.25000E-04 Dt=  3.33333E-04 [d] conv_reason: 4
  newton =   1 [       5] linear =     1 [         5] cuts =  0 [   0]
  --> SNES Linear/Non-Linear Iterations = 1 / 1
  --> SNES Residual: 0.568874E-14 0.568874E-16 0.155431E-14
  --> max change: dpmx=   2.3682E-07

== REACTIVE TRANSPORT ==========================================================
  0 2r: 1.56E+00 2x: 0.00E+00 2u: 0.00E+00 ir: 1.40E+00 iu: 0.00E+00 rsn:   0
  1 2r: 8.97E-16 2x: 7.63E-01 2u: 2.46E-01 ir: 8.88E-16 iu: 1.69E-01 rsn: rtol

 Step      4 Time=  6.25000E-04 Dt=  3.33333E-04 [d] conv_reason: 3
  newton =   1 [       4] linear =     1 [         4] cuts =  0 [   0]
  --> SNES Linear/Non-Linear Iterations = 1 / 1
  --> SNES Residual: 0.896516E-15 0.896516E-15 0.888178E-15
  --> max change:  dcmx=   1.6931E-01  dc/dt=   5.8789E-03 [mol/s]
 Maximum Pore Velocity:   7.5911E+01 [m/d]

== RICHARDS FLOW ===============================================================
  0 2r: 5.71E-15 2x: 0.00E+00 2u: 0.00E+00 ir: 1.55E-15 iu: 0.00E+00 rsn:   0
  1 2r: 5.46E-15 2x: 1.26E+06 2u: 4.45E-09 ir: 1.48E-15 iu: 6.36E-10 rsn: stol

 Step      5 Time=  1.29167E-03 Dt=  6.66667E-04 [d] conv_reason: 4
  newton =   1 [       6] linear =     1 [         6] cuts =  0 [   0]
  --> SNES Linear/Non-Linear Iterations = 1 / 1
  --> SNES Residual: 0.545708E-14 0.545708E-16 0.148492E-14
  --> max change: dpmx=   6.4028E-10

== REACTIVE TRANSPORT ==========================================================
  0 2r: 8.52E-01 2x: 0.00E+00 2u: 0.00E+00 ir: 5.86E-01 iu: 0.00E+00 rsn:   0
  1 2r: 3.57E-16 2x: 9.84E-01 2u: 2.77E-01 ir: 3.33E-16 iu: 1.78E-01 rsn: rtol

 Step      5 Time=  1.29167E-03 Dt=  6.66667E-04 [d] conv_reason: 3
  newton =   1 [       5] linear =     1 [         5] cuts =  0 [   0]
  --> SNES Linear/Non-Linear Iterations = 1 / 1
  --> SNES Residual: 0.356682E-15 0.356682E-15 0.333067E-15
  --> max change:  dcmx=   1.7777E-01  dc/dt=   3.0864E-03 [mol/s]
 Maximum Pore Velocity:   7.5911E+01 [m/d]

== RICHARDS FLOW ===============================================================
  0 2r: 5.46E-15 2x: 0.00E+00 2u: 0.00E+00 ir: 1.48E-15 iu: 0.00E+00 rsn:   0
  1 2r: 5.19E-15 2x: 1.26E+06 2u: 2.23E-10 ir: 1.48E-15 iu: 4.09E-11 rsn: stol

 Step      6 Time=  2.62500E-03 Dt=  1.33333E-03 [d] conv_reason: 4
  newton =   1 [       7] linear =     1 [         7] cuts =  0 [   0]
  --> SNES Linear/Non-Linear Iterations = 1 / 1
  --> SNES Residual: 0.519238E-14 0.519238E-16 0.148492E-14
  --> max change: dpmx=   2.9104E-11

== REACTIVE TRANSPORT ==========================================================
  0 2r: 4.80E-01 2x: 0.00E+00 2u: 0.00E+00 ir: 3.08E-01 iu: 0.00E+00 rsn:   0
  1 2r: 4.17E-16 2x: 1.22E+00 2u: 3.31E-01 ir: 3.33E-16 iu: 1.77E-01 rsn: rtol

 Step      6 Time=  2.62500E-03 Dt=  1.33333E-03 [d] conv_reason: 3
  newton =   1 [       6] linear =     1 [         6] cuts =  0 [   0]
  --> SNES Linear/Non-Linear Iterations = 1 / 1
  --> SNES Residual: 0.416870E-15 0.416870E-15 0.333067E-15
  --> max change:  dcmx=   1.7661E-01  dc/dt=   1.5330E-03 [mol/s]
 Maximum Pore Velocity:   7.5911E+01 [m/d]

== RICHARDS FLOW ===============================================================
  0 2r: 5.19E-15 2x: 0.00E+00 2u: 0.00E+00 ir: 1.48E-15 iu: 0.00E+00 rsn:   0
  1 2r: 4.65E-15 2x: 1.26E+06 2u: 1.12E-10 ir: 1.19E-15 iu: 2.64E-11 rsn: stol

 Step      7 Time=  5.29167E-03 Dt=  2.66667E-03 [d] conv_reason: 4
  newton =   1 [       8] linear =     1 [         8] cuts =  0 [   0]
  --> SNES Linear/Non-Linear Iterations = 1 / 1
  --> SNES Residual: 0.465245E-14 0.465245E-16 0.118655E-14
  --> max change: dpmx=   2.9104E-11

== REACTIVE TRANSPORT ==========================================================
  0 2r: 2.87E-01 2x: 0.00E+00 2u: 0.00E+00 ir: 1.53E-01 iu: 0.00E+00 rsn:   0
  1 2r: 5.32E-16 2x: 1.51E+00 2u: 4.09E-01 ir: 3.33E-16 iu: 1.82E-01 rsn: rtol

 Step      7 Time=  5.29167E-03 Dt=  2.66667E-03 [d] conv_reason: 3
  newton =   1 [       7] linear =     1 [         7] cuts =  0 [   0]
  --> SNES Linear/Non-Linear Iterations = 1 / 1
  --> SNES Residual: 0.532411E-15 0.532411E-15 0.333067E-15
  --> max change:  dcmx=   1.8186E-01  dc/dt=   7.8931E-04 [mol/s]
 Maximum Pore Velocity:   7.5911E+01 [m/d]
 CFL Limiting ( 1.0):   5.3333E-03 ->   5.2693E-03 [d]

== RICHARDS FLOW ===============================================================
  0 2r: 4.65E-15 2x: 0.00E+00 2u: 0.00E+00 ir: 1.19E-15 iu: 0.00E+00 rsn:   0
  1 2r: 4.87E-15 2x: 1.26E+06 2u: 6.25E-11 ir: 1.48E-15 iu: 1.46E-11 rsn: stol

 Step      8 Time=  1.06250E-02 Dt=  5.33333E-03 [d] conv_reason: 4
  newton =   1 [       9] linear =     1 [         9] cuts =  0 [   0]
  --> SNES Linear/Non-Linear Iterations = 1 / 1
  --> SNES Residual: 0.486808E-14 0.486808E-16 0.148319E-14
  --> max change: dpmx=   2.9104E-11

== REACTIVE TRANSPORT ==========================================================
  0 2r: 1.77E-01 2x: 0.00E+00 2u: 0.00E+00 ir: 7.87E-02 iu: 0.00E+00 rsn:   0
  1 2r: 1.29E-15 2x: 1.87E+00 2u: 5.20E-01 ir: 8.05E-16 iu: 1.91E-01 rsn: rtol

 Step      8 Time=  1.06250E-02 Dt=  5.33333E-03 [d] conv_reason: 3
  newton =   1 [       8] linear =     1 [         8] cuts =  0 [   0]
  --> SNES Linear/Non-Linear Iterations = 1 / 1
  --> SNES Residual: 0.128552E-14 0.128552E-14 0.804912E-15
  --> max change:  dcmx=   1.9059E-01  dc/dt=   4.1360E-04 [mol/s]
 Maximum Pore Velocity:   7.5911E+01 [m/d]
 CFL Limiting ( 1.0):   1.0667E-02 ->   5.2693E-03 [d]

== RICHARDS FLOW ===============================================================
  0 2r: 4.87E-15 2x: 0.00E+00 2u: 0.00E+00 ir: 1.48E-15 iu: 0.00E+00 rsn:   0
  1 2r: 4.78E-15 2x: 1.26E+06 2u: 6.11E-11 ir: 1.48E-15 iu: 1.45E-11 rsn: stol

 Step      9 Time=  2.12917E-02 Dt=  1.06667E-02 [d] conv_reason: 4
  newton =   1 [      10] linear =     1 [        10] cuts =  0 [   0]
  --> SNES Linear/Non-Linear Iterations = 1 / 1
  --> SNES Residual: 0.478289E-14 0.478289E-16 0.148319E-14
  --> max change: dpmx=   1.4552E-11

== REACTIVE TRANSPORT ==========================================================
  0 2r: 1.13E-01 2x: 0.00E+00 2u: 0.00E+00 ir: 4.12E-02 iu: 0.00E+00 rsn:   0
  1 2r: 1.06E-15 2x: 2.14E+00 2u: 3.93E-01 ir: 6.11E-16 iu: 1.26E-01 rsn: rtol

 Step      9 Time=  1.58943E-02 Dt=  5.26933E-03 [d] conv_reason: 3
  newton =   1 [       9] linear =     1 [         9] cuts =  0 [   0]
  --> SNES Linear/Non-Linear Iterations = 1 / 1
  --> SNES Residual: 0.105873E-14 0.105873E-14 0.610623E-15
  --> max change:  dcmx=   1.2645E-01  dc/dt=   2.7776E-04 [mol/s]
 Maximum Pore Velocity:   7.5911E+01 [m/d]
 CFL Limiting ( 1.0):   1.0539E-02 ->   5.2693E-03 [d]

== REACTIVE TRANSPORT ==========================================================
  0 2r: 8.60E-02 2x: 0.00E+00 2u: 0.00E+00 ir: 2.77E-02 iu: 0.00E+00 rsn:   0
  1 2r: 1.55E-15 2x: 2.37E+00 2u: 3.34E-01 ir: 7.49E-16 iu: 9.80E-02 rsn: rtol

 Step     10 Time=  2.12917E-02 Dt=  5.39733E-03 [d] conv_reason: 3
  newton =   1 [      10] linear =     1 [        10] cuts =  0 [   0]
  --> SNES Linear/Non-Linear Iterations = 1 / 1
  --> SNES Residual: 0.155183E-14 0.155183E-14 0.749401E-15
  --> max change:  dcmx=   9.8004E-02  dc/dt=   2.1016E-04 [mol/s]
 Maximum Pore Velocity:   7.5911E+01 [m/d]
 CFL Limiting ( 1.0):   1.0795E-02 ->   5.2693E-03 [d]

== RICHARDS FLOW ===============================================================
  0 2r: 4.78E-15 2x: 0.00E+00 2u: 0.00E+00 ir: 1.48E-15 iu: 0.00E+00 rsn:   0
  1 2r: 4.78E-15 2x: 1.26E+06 2u: 6.11E-11 ir: 1.48E-15 iu: 1.45E-11 rsn: stol

 Step     10 Time=  4.26250E-02 Dt=  2.13333E-02 [d] conv_reason: 4
  newton =   1 [      11] linear =     1 [        11] cuts =  0 [   0]
  --> SNES Linear/Non-Linear Iterations = 1 / 1
  --> SNES Residual: 0.478289E-14 0.478289E-16 0.148319E-14
  --> max change: dpmx=   0.0000E+00

== REACTIVE TRANSPORT ==========================================================
  0 2r: 7.14E-02 2x: 0.00E+00 2u: 0.00E+00 ir: 2.10E-02 iu: 0.00E+00 rsn:   0
  1 2r: 1.01E-15 2x: 2.57E+00 2u: 2.85E-01 ir: 4.72E-16 iu: 7.83E-02 rsn: rtol

 Step     11 Time=  2.65610E-02 Dt=  5.26933E-03 [d] conv_reason: 3
  newton =   1 [      11] linear =     1 [        11] cuts =  0 [   0]
  --> SNES Linear/Non-Linear Iterations = 1 / 1
  --> SNES Residual: 0.101191E-14 0.101191E-14 0.471845E-15
  --> max change:  dcmx=   7.8297E-02  dc/dt=   1.7198E-04 [mol/s]
 Maximum Pore Velocity:   7.5911E+01 [m/d]
 CFL Limiting ( 1.0):   1.0539E-02 ->   5.2693E-03 [d]

== REACTIVE TRANSPORT ==========================================================
  0 2r: 6.25E-02 2x: 0.00E+00 2u: 0.00E+00 ir: 1.71E-02 iu: 0.00E+00 rsn:   0
  1 2r: 1.85E-15 2x: 2.75E+00 2u: 2.57E-01 ir: 8.88E-16 iu: 6.67E-02 rsn: rtol

 Step     12 Time=  3.18303E-02 Dt=  5.26933E-03 [d] conv_reason: 3
  newton =   1 [      12] linear =     1 [        12] cuts =  0 [   0]
  --> SNES Linear/Non-Linear Iterations = 1 / 1
  --> SNES Residual: 0.184940E-14 0.184940E-14 0.888178E-15
  --> max change:  dcmx=   6.6707E-02  dc/dt=   1.4652E-04 [mol/s]
 Maximum Pore Velocity:   7.5911E+01 [m/d]
 CFL Limiting ( 1.0):   1.0539E-02 ->   5.2693E-03 [d]

== REACTIVE TRANSPORT ==========================================================
  0 2r: 5.63E-02 2x: 0.00E+00 2u: 0.00E+00 ir: 1.46E-02 iu: 0.00E+00 rsn:   0
  1 2r: 1.38E-15 2x: 2.91E+00 2u: 2.36E-01 ir: 6.94E-16 iu: 5.85E-02 rsn: rtol

 Step     13 Time=  3.70997E-02 Dt=  5.26933E-03 [d] conv_reason: 3
  newton =   1 [      13] linear =     1 [        13] cuts =  0 [   0]
  --> SNES Linear/Non-Linear Iterations = 1 / 1
  --> SNES Residual: 0.138049E-14 0.138049E-14 0.693889E-15
  --> max change:  dcmx=   5.8452E-02  dc/dt=   1.2839E-04 [mol/s]
 Maximum Pore Velocity:   7.5911E+01 [m/d]
 CFL Limiting ( 1.0):   1.0539E-02 ->   5.2693E-03 [d]

== REACTIVE TRANSPORT ==========================================================
  0 2r: 5.17E-02 2x: 0.00E+00 2u: 0.00E+00 ir: 1.28E-02 iu: 0.00E+00 rsn:   0
  1 2r: 1.66E-15 2x: 3.06E+00 2u: 2.30E-01 ir: 9.16E-16 iu: 5.46E-02 rsn: rtol

 Step     14 Time=  4.26250E-02 Dt=  5.52533E-03 [d] conv_reason: 3
  newton =   1 [      14] linear =     1 [        14] cuts =  0 [   0]
  --> SNES Linear/Non-Linear Iterations = 1 / 1
  --> SNES Residual: 0.165566E-14 0.165566E-14 0.915934E-15
  --> max change:  dcmx=   5.4614E-02  dc/dt=   1.1440E-04 [mol/s]
 Maximum Pore Velocity:   7.5911E+01 [m/d]
 CFL Limiting ( 1.0):   1.1051E-02 ->   5.2693E-03 [d]

== RICHARDS FLOW ===============================================================
  0 2r: 4.78E-15 2x: 0.00E+00 2u: 0.00E+00 ir: 1.48E-15 iu: 0.00E+00 rsn:   0
  1 2r: 4.78E-15 2x: 1.26E+06 2u: 6.11E-11 ir: 1.48E-15 iu: 1.45E-11 rsn: stol

 Step     11 Time=  8.52917E-02 Dt=  4.26667E-02 [d] conv_reason: 4
  newton =   1 [      12] linear =     1 [        12] cuts =  0 [   0]
  --> SNES Linear/Non-Linear Iterations = 1 / 1
  --> SNES Residual: 0.478289E-14 0.478289E-16 0.148319E-14
  --> max change: dpmx=   0.0000E+00

== REACTIVE TRANSPORT ==========================================================
  0 2r: 4.80E-02 2x: 0.00E+00 2u: 0.00E+00 ir: 1.14E-02 iu: 0.00E+00 rsn:   0
  1 2r: 1.43E-15 2x: 3.20E+00 2u: 2.06E-01 ir: 6.11E-16 iu: 4.73E-02 rsn: rtol

 Step     15 Time=  4.78943E-02 Dt=  5.26933E-03 [d] conv_reason: 3
  newton =   1 [      15] linear =     1 [        15] cuts =  0 [   0]
  --> SNES Linear/Non-Linear Iterations = 1 / 1
  --> SNES Residual: 0.142622E-14 0.142622E-14 0.610623E-15
  --> max change:  dcmx=   4.7317E-02  dc/dt=   1.0393E-04 [mol/s]
 Maximum Pore Velocity:   7.5911E+01 [m/d]
 CFL Limiting ( 1.0):   1.0539E-02 ->   5.2693E-03 [d]

== REACTIVE TRANSPORT ==========================================================
  0 2r: 4.52E-02 2x: 0.00E+00 2u: 0.00E+00 ir: 1.04E-02 iu: 0.00E+00 rsn:   0
  1 2r: 1.65E-15 2x: 3.33E+00 2u: 1.96E-01 ir: 8.05E-16 iu: 4.35E-02 rsn: rtol

 Step     16 Time=  5.31637E-02 Dt=  5.26933E-03 [d] conv_reason: 3
  newton =   1 [      16] linear =     1 [        16] cuts =  0 [   0]
  --> SNES Linear/Non-Linear Iterations = 1 / 1
  --> SNES Residual: 0.165401E-14 0.165401E-14 0.804912E-15
  --> max change:  dcmx=   4.3525E-02  dc/dt=   9.5603E-05 [mol/s]
 Maximum Pore Velocity:   7.5911E+01 [m/d]
 CFL Limiting ( 1.0):   1.0539E-02 ->   5.2693E-03 [d]

== REACTIVE TRANSPORT ==========================================================
  0 2r: 4.29E-02 2x: 0.00E+00 2u: 0.00E+00 ir: 9.53E-03 iu: 0.00E+00 rsn:   0
  1 2r: 1.99E-15 2x: 3.46E+00 2u: 1.87E-01 ir: 8.33E-16 iu: 4.04E-02 rsn: rtol

 Step     17 Time=  5.84330E-02 Dt=  5.26933E-03 [d] conv_reason: 3
  newton =   1 [      17] linear =     1 [        17] cuts =  0 [   0]
  --> SNES Linear/Non-Linear Iterations = 1 / 1
  --> SNES Residual: 0.198885E-14 0.198885E-14 0.832667E-15
  --> max change:  dcmx=   4.0401E-02  dc/dt=   8.8740E-05 [mol/s]
 Maximum Pore Velocity:   7.5911E+01 [m/d]
 CFL Limiting ( 1.0):   1.0539E-02 ->   5.2693E-03 [d]

== REACTIVE TRANSPORT ==========================================================
  0 2r: 4.10E-02 2x: 0.00E+00 2u: 0.00E+00 ir: 8.85E-03 iu: 0.00E+00 rsn:   0
  1 2r: 2.08E-15 2x: 3.58E+00 2u: 1.79E-01 ir: 1.03E-15 iu: 3.78E-02 rsn: rtol

 Step     18 Time=  6.37023E-02 Dt=  5.26933E-03 [d] conv_reason: 3
  newton =   1 [      18] linear =     1 [        18] cuts =  0 [   0]
  --> SNES Linear/Non-Linear Iterations = 1 / 1
  --> SNES Residual: 0.208178E-14 0.208178E-14 0.102696E-14
  --> max change:  dcmx=   3.7752E-02  dc/dt=   8.2923E-05 [mol/s]
 Maximum Pore Velocity:   7.5911E+01 [m/d]
 CFL Limiting ( 1.0):   1.0539E-02 ->   5.2693E-03 [d]

== REACTIVE TRANSPORT ==========================================================
  0 2r: 3.93E-02 2x: 0.00E+00 2u: 0.00E+00 ir: 8.27E-03 iu: 0.00E+00 rsn:   0
  1 2r: 2.10E-15 2x: 3.69E+00 2u: 1.73E-01 ir: 1.05E-15 iu: 3.55E-02 rsn: rtol

 Step     19 Time=  6.89717E-02 Dt=  5.26933E-03 [d] conv_reason: 3
  newton =   1 [      19] linear =     1 [        19] cuts =  0 [   0]
  --> SNES Linear/Non-Linear Iterations = 1 / 1
  --> SNES Residual: 0.209979E-14 0.209979E-14 0.105471E-14
  --> max change:  dcmx=   3.5538E-02  dc/dt=   7.8060E-05 [mol/s]
 Maximum Pore Velocity:   7.5911E+01 [m/d]
 CFL Limiting ( 1.0):   1.0539E-02 ->   5.2693E-03 [d]

== REACTIVE TRANSPORT ==========================================================
  0 2r: 3.78E-02 2x: 0.00E+00 2u: 0.00E+00 ir: 7.78E-03 iu: 0.00E+00 rsn:   0
  1 2r: 2.04E-15 2x: 3.80E+00 2u: 1.67E-01 ir: 7.49E-16 iu: 3.36E-02 rsn: rtol

 Step     20 Time=  7.42410E-02 Dt=  5.26933E-03 [d] conv_reason: 3
  newton =   1 [      20] linear =     1 [        20] cuts =  0 [   0]
  --> SNES Linear/Non-Linear Iterations = 1 / 1
  --> SNES Residual: 0.204080E-14 0.204080E-14 0.749401E-15
  --> max change:  dcmx=   3.3614E-02  dc/dt=   7.3832E-05 [mol/s]
 Maximum Pore Velocity:   7.5911E+01 [m/d]
 CFL Limiting ( 1.0):   1.0539E-02 ->   5.2693E-03 [d]

== REACTIVE TRANSPORT ==========================================================
  0 2r: 3.66E-02 2x: 0.00E+00 2u: 0.00E+00 ir: 7.36E-03 iu: 0.00E+00 rsn:   0
  1 2r: 2.48E-15 2x: 3.91E+00 2u: 1.62E-01 ir: 1.42E-15 iu: 3.19E-02 rsn: rtol

 Step     21 Time=  7.95103E-02 Dt=  5.26933E-03 [d] conv_reason: 3
  newton =   1 [      21] linear =     1 [        21] cuts =  0 [   0]
  --> SNES Linear/Non-Linear Iterations = 1 / 1
  --> SNES Residual: 0.247806E-14 0.247806E-14 0.141553E-14
  --> max change:  dcmx=   3.1922E-02  dc/dt=   7.0117E-05 [mol/s]
 Maximum Pore Velocity:   7.5911E+01 [m/d]
 CFL Limiting ( 1.0):   1.0539E-02 ->   5.2693E-03 [d]

== REACTIVE TRANSPORT ==========================================================
  0 2r: 3.55E-02 2x: 0.00E+00 2u: 0.00E+00 ir: 6.99E-03 iu: 0.00E+00 rsn:   0
  1 2r: 2.16E-15 2x: 4.03E+00 2u: 1.72E-01 ir: 7.49E-16 iu: 3.33E-02 rsn: rtol

 Step     22 Time=  8.52917E-02 Dt=  5.78134E-03 [d] conv_reason: 3
  newton =   1 [      22] linear =     1 [        22] cuts =  0 [   0]
  --> SNES Linear/Non-Linear Iterations = 1 / 1
  --> SNES Residual: 0.215820E-14 0.215820E-14 0.749401E-15
  --> max change:  dcmx=   3.3251E-02  dc/dt=   6.6569E-05 [mol/s]
 Maximum Pore Velocity:   7.5911E+01 [m/d]
 CFL Limiting ( 1.0):   1.1563E-02 ->   5.2693E-03 [d]

== RICHARDS FLOW ===============================================================
  0 2r: 4.78E-15 2x: 0.00E+00 2u: 0.00E+00 ir: 1.48E-15 iu: 0.00E+00 rsn:   0
  1 2r: 4.78E-15 2x: 1.26E+06 2u: 6.11E-11 ir: 1.48E-15 iu: 1.45E-11 rsn: stol

 Step     12 Time=  1.70625E-01 Dt=  8.53333E-02 [d] conv_reason: 4
  newton =   1 [      13] linear =     1 [        13] cuts =  0 [   0]
  --> SNES Linear/Non-Linear Iterations = 1 / 1
  --> SNES Residual: 0.478289E-14 0.478289E-16 0.148319E-14
  --> max change: dpmx=   0.0000E+00

== REACTIVE TRANSPORT ==========================================================
  0 2r: 3.44E-02 2x: 0.00E+00 2u: 0.00E+00 ir: 6.64E-03 iu: 0.00E+00 rsn:   0
  1 2r: 2.54E-15 2x: 4.13E+00 2u: 1.53E-01 ir: 1.36E-15 iu: 2.90E-02 rsn: rtol

 Step     23 Time=  9.05610E-02 Dt=  5.26933E-03 [d] conv_reason: 3
  newton =   1 [      23] linear =     1 [        23] cuts =  0 [   0]
  --> SNES Linear/Non-Linear Iterations = 1 / 1
  --> SNES Residual: 0.253993E-14 0.253993E-14 0.136002E-14
  --> max change:  dcmx=   2.9008E-02  dc/dt=   6.3717E-05 [mol/s]
 Maximum Pore Velocity:   7.5911E+01 [m/d]
 CFL Limiting ( 1.0):   1.0539E-02 ->   5.2693E-03 [d]

== REACTIVE TRANSPORT ==========================================================
  0 2r: 3.35E-02 2x: 0.00E+00 2u: 0.00E+00 ir: 6.35E-03 iu: 0.00E+00 rsn:   0
  1 2r: 2.59E-15 2x: 4.22E+00 2u: 1.49E-01 ir: 8.33E-16 iu: 2.78E-02 rsn: rtol

 Step     24 Time=  9.58303E-02 Dt=  5.26933E-03 [d] conv_reason: 3
  newton =   1 [      24] linear =     1 [        24] cuts =  0 [   0]
  --> SNES Linear/Non-Linear Iterations = 1 / 1
  --> SNES Residual: 0.259435E-14 0.259435E-14 0.832667E-15
  --> max change:  dcmx=   2.7839E-02  dc/dt=   6.1149E-05 [mol/s]
 Maximum Pore Velocity:   7.5911E+01 [m/d]
 CFL Limiting ( 1.0):   1.0539E-02 ->   5.2693E-03 [d]

== REACTIVE TRANSPORT ==========================================================
  0 2r: 3.27E-02 2x: 0.00E+00 2u: 0.00E+00 ir: 6.10E-03 iu: 0.00E+00 rsn:   0
  1 2r: 2.12E-15 2x: 4.32E+00 2u: 1.46E-01 ir: 8.05E-16 iu: 2.68E-02 rsn: rtol

 Step     25 Time=  1.01100E-01 Dt=  5.26933E-03 [d] conv_reason: 3
  newton =   1 [      25] linear =     1 [        25] cuts =  0 [   0]
  --> SNES Linear/Non-Linear Iterations = 1 / 1
  --> SNES Residual: 0.211844E-14 0.211844E-14 0.804912E-15
  --> max change:  dcmx=   2.6781E-02  dc/dt=   5.8824E-05 [mol/s]
 Maximum Pore Velocity:   7.5911E+01 [m/d]
 CFL Limiting ( 1.0):   1.0539E-02 ->   5.2693E-03 [d]

== REACTIVE TRANSPORT ==========================================================
  0 2r: 3.19E-02 2x: 0.00E+00 2u: 0.00E+00 ir: 5.87E-03 iu: 0.00E+00 rsn:   0
  1 2r: 2.05E-15 2x: 4.41E+00 2u: 1.43E-01 ir: 9.71E-16 iu: 2.58E-02 rsn: rtol

 Step     26 Time=  1.06369E-01 Dt=  5.26933E-03 [d] conv_reason: 3
  newton =   1 [      26] linear =     1 [        26] cuts =  0 [   0]
  --> SNES Linear/Non-Linear Iterations = 1 / 1
  --> SNES Residual: 0.205009E-14 0.205009E-14 0.971445E-15
  --> max change:  dcmx=   2.5826E-02  dc/dt=   5.6726E-05 [mol/s]
 Maximum Pore Velocity:   7.5911E+01 [m/d]
 CFL Limiting ( 1.0):   1.0539E-02 ->   5.2693E-03 [d]

== REACTIVE TRANSPORT ==========================================================
  0 2r: 3.13E-02 2x: 0.00E+00 2u: 0.00E+00 ir: 5.66E-03 iu: 0.00E+00 rsn:   0
  1 2r: 2.73E-15 2x: 4.50E+00 2u: 1.40E-01 ir: 1.19E-15 iu: 2.50E-02 rsn: rtol

 Step     27 Time=  1.11638E-01 Dt=  5.26933E-03 [d] conv_reason: 3
  newton =   1 [      27] linear =     1 [        27] cuts =  0 [   0]
  --> SNES Linear/Non-Linear Iterations = 1 / 1
  --> SNES Residual: 0.272965E-14 0.272965E-14 0.119349E-14
  --> max change:  dcmx=   2.4961E-02  dc/dt=   5.4826E-05 [mol/s]
 Maximum Pore Velocity:   7.5911E+01 [m/d]
 CFL Limiting ( 1.0):   1.0539E-02 ->   5.2693E-03 [d]

== REACTIVE TRANSPORT ==========================================================
  0 2r: 3.06E-02 2x: 0.00E+00 2u: 0.00E+00 ir: 5.47E-03 iu: 0.00E+00 rsn:   0
  1 2r: 3.21E-15 2x: 4.59E+00 2u: 1.37E-01 ir: 1.22E-15 iu: 2.42E-02 rsn: rtol

 Step     28 Time=  1.16908E-01 Dt=  5.26933E-03 [d] conv_reason: 3
  newton =   1 [      28] linear =     1 [        28] cuts =  0 [   0]
  --> SNES Linear/Non-Linear Iterations = 1 / 1
  --> SNES Residual: 0.320767E-14 0.320767E-14 0.122125E-14
  --> max change:  dcmx=   2.4165E-02  dc/dt=   5.3079E-05 [mol/s]
 Maximum Pore Velocity:   7.5911E+01 [m/d]
 CFL Limiting ( 1.0):   1.0539E-02 ->   5.2693E-03 [d]

== REACTIVE TRANSPORT ==========================================================
  0 2r: 3.01E-02 2x: 0.00E+00 2u: 0.00E+00 ir: 5.29E-03 iu: 0.00E+00 rsn:   0
  1 2r: 2.30E-15 2x: 4.68E+00 2u: 1.35E-01 ir: 8.05E-16 iu: 2.34E-02 rsn: rtol

 Step     29 Time=  1.22177E-01 Dt=  5.26933E-03 [d] conv_reason: 3
  newton =   1 [      29] linear =     1 [        29] cuts =  0 [   0]
  --> SNES Linear/Non-Linear Iterations = 1 / 1
  --> SNES Residual: 0.230251E-14 0.230251E-14 0.804912E-15
  --> max change:  dcmx=   2.3432E-02  dc/dt=   5.1467E-05 [mol/s]
 Maximum Pore Velocity:   7.5911E+01 [m/d]
 CFL Limiting ( 1.0):   1.0539E-02 ->   5.2693E-03 [d]

== REACTIVE TRANSPORT ==========================================================
  0 2r: 2.95E-02 2x: 0.00E+00 2u: 0.00E+00 ir: 5.13E-03 iu: 0.00E+00 rsn:   0
  1 2r: 2.96E-15 2x: 4.77E+00 2u: 1.33E-01 ir: 1.03E-15 iu: 2.28E-02 rsn: rtol

 Step     30 Time=  1.27446E-01 Dt=  5.26933E-03 [d] conv_reason: 3
  newton =   1 [      30] linear =     1 [        30] cuts =  0 [   0]
  --> SNES Linear/Non-Linear Iterations = 1 / 1
  --> SNES Residual: 0.296032E-14 0.296032E-14 0.102696E-14
  --> max change:  dcmx=   2.2752E-02  dc/dt=   4.9976E-05 [mol/s]
 Maximum Pore Velocity:   7.5911E+01 [m/d]
 CFL Limiting ( 1.0):   1.0539E-02 ->   5.2693E-03 [d]

== REACTIVE TRANSPORT ==========================================================
  0 2r: 2.90E-02 2x: 0.00E+00 2u: 0.00E+00 ir: 4.98E-03 iu: 0.00E+00 rsn:   0
  1 2r: 2.64E-15 2x: 4.85E+00 2u: 1.30E-01 ir: 9.71E-16 iu: 2.21E-02 rsn: rtol

 Step     31 Time=  1.32716E-01 Dt=  5.26933E-03 [d] conv_reason: 3
  newton =   1 [      31] linear =     1 [        31] cuts =  0 [   0]
  --> SNES Linear/Non-Linear Iterations = 1 / 1
  --> SNES Residual: 0.264046E-14 0.264046E-14 0.971445E-15
  --> max change:  dcmx=   2.2122E-02  dc/dt=   4.8591E-05 [mol/s]
 Maximum Pore Velocity:   7.5911E+01 [m/d]
 CFL Limiting ( 1.0):   1.0539E-02 ->   5.2693E-03 [d]

== REACTIVE TRANSPORT ==========================================================
  0 2r: 2.86E-02 2x: 0.00E+00 2u: 0.00E+00 ir: 4.85E-03 iu: 0.00E+00 rsn:   0
  1 2r: 2.31E-15 2x: 4.93E+00 2u: 1.29E-01 ir: 9.99E-16 iu: 2.15E-02 rsn: rtol

 Step     32 Time=  1.37985E-01 Dt=  5.26933E-03 [d] conv_reason: 3
  newton =   1 [      32] linear =     1 [        32] cuts =  0 [   0]
  --> SNES Linear/Non-Linear Iterations = 1 / 1
  --> SNES Residual: 0.230685E-14 0.230685E-14 0.999201E-15
  --> max change:  dcmx=   2.1540E-02  dc/dt=   4.7313E-05 [mol/s]
 Maximum Pore Velocity:   7.5911E+01 [m/d]
 CFL Limiting ( 1.0):   1.0539E-02 ->   5.2693E-03 [d]

== REACTIVE TRANSPORT ==========================================================
  0 2r: 2.81E-02 2x: 0.00E+00 2u: 0.00E+00 ir: 4.72E-03 iu: 0.00E+00 rsn:   0
  1 2r: 2.57E-15 2x: 5.02E+00 2u: 1.27E-01 ir: 8.33E-16 iu: 2.10E-02 rsn: rtol

 Step     33 Time=  1.43254E-01 Dt=  5.26933E-03 [d] conv_reason: 3
  newton =   1 [      33] linear =     1 [        33] cuts =  0 [   0]
  --> SNES Linear/Non-Linear Iterations = 1 / 1
  --> SNES Residual: 0.257102E-14 0.257102E-14 0.832667E-15
  --> max change:  dcmx=   2.0999E-02  dc/dt=   4.6124E-05 [mol/s]
 Maximum Pore Velocity:   7.5911E+01 [m/d]
 CFL Limiting ( 1.0):   1.0539E-02 ->   5.2693E-03 [d]

== REACTIVE TRANSPORT ==========================================================
  0 2r: 2.77E-02 2x: 0.00E+00 2u: 0.00E+00 ir: 4.60E-03 iu: 0.00E+00 rsn:   0
  1 2r: 2.19E-15 2x: 5.10E+00 2u: 1.25E-01 ir: 8.60E-16 iu: 2.05E-02 rsn: rtol

 Step     34 Time=  1.48524E-01 Dt=  5.26933E-03 [d] conv_reason: 3
  newton =   1 [      34] linear =     1 [        34] cuts =  0 [   0]
  --> SNES Linear/Non-Linear Iterations = 1 / 1
  --> SNES Residual: 0.219436E-14 0.219436E-14 0.860423E-15
  --> max change:  dcmx=   2.0492E-02  dc/dt=   4.5010E-05 [mol/s]
 Maximum Pore Velocity:   7.5911E+01 [m/d]
 CFL Limiting ( 1.0):   1.0539E-02 ->   5.2693E-03 [d]

== REACTIVE TRANSPORT ==========================================================
  0 2r: 2.74E-02 2x: 0.00E+00 2u: 0.00E+00 ir: 4.49E-03 iu: 0.00E+00 rsn:   0
  1 2r: 2.59E-15 2x: 5.18E+00 2u: 1.23E-01 ir: 9.44E-16 iu: 2.00E-02 rsn: rtol

 Step     35 Time=  1.53793E-01 Dt=  5.26933E-03 [d] conv_reason: 3
  newton =   1 [      35] linear =     1 [        35] cuts =  0 [   0]
  --> SNES Linear/Non-Linear Iterations = 1 / 1
  --> SNES Residual: 0.259462E-14 0.259462E-14 0.943690E-15
  --> max change:  dcmx=   2.0016E-02  dc/dt=   4.3964E-05 [mol/s]
 Maximum Pore Velocity:   7.5911E+01 [m/d]
 CFL Limiting ( 1.0):   1.0539E-02 ->   5.2693E-03 [d]

== REACTIVE TRANSPORT ==========================================================
  0 2r: 2.70E-02 2x: 0.00E+00 2u: 0.00E+00 ir: 4.38E-03 iu: 0.00E+00 rsn:   0
  1 2r: 2.89E-15 2x: 5.25E+00 2u: 1.22E-01 ir: 9.71E-16 iu: 1.96E-02 rsn: rtol

 Step     36 Time=  1.59062E-01 Dt=  5.26933E-03 [d] conv_reason: 3
  newton =   1 [      36] linear =     1 [        36] cuts =  0 [   0]
  --> SNES Linear/Non-Linear Iterations = 1 / 1
  --> SNES Residual: 0.288810E-14 0.288810E-14 0.971445E-15
  --> max change:  dcmx=   1.9568E-02  dc/dt=   4.2980E-05 [mol/s]
 Maximum Pore Velocity:   7.5911E+01 [m/d]
 CFL Limiting ( 1.0):   1.0539E-02 ->   5.2693E-03 [d]

== REACTIVE TRANSPORT ==========================================================
  0 2r: 2.67E-02 2x: 0.00E+00 2u: 0.00E+00 ir: 4.29E-03 iu: 0.00E+00 rsn:   0
  1 2r: 2.54E-15 2x: 5.33E+00 2u: 1.20E-01 ir: 9.71E-16 iu: 1.91E-02 rsn: rtol

 Step     37 Time=  1.64332E-01 Dt=  5.26933E-03 [d] conv_reason: 3
  newton =   1 [      37] linear =     1 [        37] cuts =  0 [   0]
  --> SNES Linear/Non-Linear Iterations = 1 / 1
  --> SNES Residual: 0.253832E-14 0.253832E-14 0.971445E-15
  --> max change:  dcmx=   1.9145E-02  dc/dt=   4.2052E-05 [mol/s]
 Maximum Pore Velocity:   7.5911E+01 [m/d]
 CFL Limiting ( 1.0):   1.0539E-02 ->   5.2693E-03 [d]

== REACTIVE TRANSPORT ==========================================================
  0 2r: 2.63E-02 2x: 0.00E+00 2u: 0.00E+00 ir: 4.19E-03 iu: 0.00E+00 rsn:   0
  1 2r: 4.12E-15 2x: 5.41E+00 2u: 1.19E-01 ir: 1.94E-15 iu: 1.87E-02 rsn: rtol

 Step     38 Time=  1.69601E-01 Dt=  5.26933E-03 [d] conv_reason: 3
  newton =   1 [      38] linear =     1 [        38] cuts =  0 [   0]
  --> SNES Linear/Non-Linear Iterations = 1 / 1
  --> SNES Residual: 0.412231E-14 0.412231E-14 0.194289E-14
  --> max change:  dcmx=   1.8746E-02  dc/dt=   4.1176E-05 [mol/s]
 Maximum Pore Velocity:   7.5911E+01 [m/d]
 CFL Limiting ( 1.0):   1.0539E-02 ->   5.2693E-03 [d]

== REACTIVE TRANSPORT ==========================================================
  0 2r: 2.60E-02 2x: 0.00E+00 2u: 0.00E+00 ir: 4.11E-03 iu: 0.00E+00 rsn:   0
  1 2r: 3.59E-15 2x: 5.42E+00 2u: 2.30E-02 ir: 1.78E-15 iu: 3.63E-03 rsn: rtol

 Step     39 Time=  1.70625E-01 Dt=  1.02401E-03 [d] conv_reason: 3
  newton =   1 [      39] linear =     1 [        39] cuts =  0 [   0]
  --> SNES Linear/Non-Linear Iterations = 1 / 1
  --> SNES Residual: 0.358567E-14 0.358567E-14 0.177636E-14
  --> max change:  dcmx=   3.6287E-03  dc/dt=   4.1015E-05 [mol/s]
 Maximum Pore Velocity:   7.5911E+01 [m/d]

== RICHARDS FLOW ===============================================================
  0 2r: 4.78E-15 2x: 0.00E+00 2u: 0.00E+00 ir: 1.48E-15 iu: 0.00E+00 rsn:   0
  1 2r: 4.78E-15 2x: 1.26E+06 2u: 6.11E-11 ir: 1.48E-15 iu: 1.45E-11 rsn: stol

 Step     13 Time=  3.41292E-01 Dt=  1.70667E-01 [d] conv_reason: 4
  newton =   1 [      14] linear =     1 [        14] cuts =  0 [   0]
  --> SNES Linear/Non-Linear Iterations = 1 / 1
  --> SNES Residual: 0.478289E-14 0.478289E-16 0.148319E-14
  --> max change: dpmx=   0.0000E+00

== REACTIVE TRANSPORT ==========================================================
  0 2r: 2.60E-02 2x: 0.00E+00 2u: 0.00E+00 ir: 4.09E-03 iu: 0.00E+00 rsn:   0
  1 2r: 2.70E-15 2x: 5.50E+00 2u: 1.17E-01 ir: 9.44E-16 iu: 1.83E-02 rsn: rtol

 Step     40 Time=  1.75894E-01 Dt=  5.26933E-03 [d] conv_reason: 3
  newton =   1 [      40] linear =     1 [        40] cuts =  0 [   0]
  --> SNES Linear/Non-Linear Iterations = 1 / 1
  --> SNES Residual: 0.270027E-14 0.270027E-14 0.943690E-15
  --> max change:  dcmx=   1.8302E-02  dc/dt=   4.0200E-05 [mol/s]
 Maximum Pore Velocity:   7.5911E+01 [m/d]
 CFL Limiting ( 1.0):   1.0539E-02 ->   5.2693E-03 [d]

== REACTIVE TRANSPORT ==========================================================
  0 2r: 2.57E-02 2x: 0.00E+00 2u: 0.00E+00 ir: 4.01E-03 iu: 0.00E+00 rsn:   0
  1 2r: 3.08E-15 2x: 5.57E+00 2u: 1.16E-01 ir: 1.17E-15 iu: 1.80E-02 rsn: rtol

 Step     41 Time=  1.81164E-01 Dt=  5.26933E-03 [d] conv_reason: 3
  newton =   1 [      41] linear =     1 [        41] cuts =  0 [   0]
  --> SNES Linear/Non-Linear Iterations = 1 / 1
  --> SNES Residual: 0.308210E-14 0.308210E-14 0.116573E-14
  --> max change:  dcmx=   1.7950E-02  dc/dt=   3.9428E-05 [mol/s]
 Maximum Pore Velocity:   7.5911E+01 [m/d]
 CFL Limiting ( 1.0):   1.0539E-02 ->   5.2693E-03 [d]

== REACTIVE TRANSPORT ==========================================================
  0 2r: 2.54E-02 2x: 0.00E+00 2u: 0.00E+00 ir: 3.93E-03 iu: 0.00E+00 rsn:   0
  1 2r: 3.10E-15 2x: 5.64E+00 2u: 1.15E-01 ir: 1.11E-15 iu: 1.76E-02 rsn: rtol

 Step     42 Time=  1.86433E-01 Dt=  5.26933E-03 [d] conv_reason: 3
  newton =   1 [      42] linear =     1 [        42] cuts =  0 [   0]
  --> SNES Linear/Non-Linear Iterations = 1 / 1
  --> SNES Residual: 0.309869E-14 0.309869E-14 0.111022E-14
  --> max change:  dcmx=   1.7616E-02  dc/dt=   3.8694E-05 [mol/s]
 Maximum Pore Velocity:   7.5911E+01 [m/d]
 CFL Limiting ( 1.0):   1.0539E-02 ->   5.2693E-03 [d]

== REACTIVE TRANSPORT ==========================================================
  0 2r: 2.51E-02 2x: 0.00E+00 2u: 0.00E+00 ir: 3.86E-03 iu: 0.00E+00 rsn:   0
  1 2r: 3.00E-15 2x: 5.71E+00 2u: 1.14E-01 ir: 9.99E-16 iu: 1.73E-02 rsn: rtol

 Step     43 Time=  1.91702E-01 Dt=  5.26933E-03 [d] conv_reason: 3
  newton =   1 [      43] linear =     1 [        43] cuts =  0 [   0]
  --> SNES Linear/Non-Linear Iterations = 1 / 1
  --> SNES Residual: 0.299642E-14 0.299642E-14 0.999201E-15
  --> max change:  dcmx=   1.7298E-02  dc/dt=   3.7996E-05 [mol/s]
 Maximum Pore Velocity:   7.5911E+01 [m/d]
 CFL Limiting ( 1.0):   1.0539E-02 ->   5.2693E-03 [d]

== REACTIVE TRANSPORT ==========================================================
  0 2r: 2.49E-02 2x: 0.00E+00 2u: 0.00E+00 ir: 3.79E-03 iu: 0.00E+00 rsn:   0
  1 2r: 3.36E-15 2x: 5.78E+00 2u: 1.13E-01 ir: 1.03E-15 iu: 1.70E-02 rsn: rtol

 Step     44 Time=  1.96972E-01 Dt=  5.26933E-03 [d] conv_reason: 3
  newton =   1 [      44] linear =     1 [        44] cuts =  0 [   0]
  --> SNES Linear/Non-Linear Iterations = 1 / 1
  --> SNES Residual: 0.335843E-14 0.335843E-14 0.102696E-14
  --> max change:  dcmx=   1.6996E-02  dc/dt=   3.7331E-05 [mol/s]
 Maximum Pore Velocity:   7.5911E+01 [m/d]
 CFL Limiting ( 1.0):   1.0539E-02 ->   5.2693E-03 [d]

== REACTIVE TRANSPORT ==========================================================
  0 2r: 2.46E-02 2x: 0.00E+00 2u: 0.00E+00 ir: 3.72E-03 iu: 0.00E+00 rsn:   0
  1 2r: 3.83E-15 2x: 5.85E+00 2u: 1.11E-01 ir: 1.55E-15 iu: 1.67E-02 rsn: rtol

 Step     45 Time=  2.02241E-01 Dt=  5.26933E-03 [d] conv_reason: 3
  newton =   1 [      45] linear =     1 [        45] cuts =  0 [   0]
  --> SNES Linear/Non-Linear Iterations = 1 / 1
  --> SNES Residual: 0.382997E-14 0.382997E-14 0.155431E-14
  --> max change:  dcmx=   1.6707E-02  dc/dt=   3.6697E-05 [mol/s]
 Maximum Pore Velocity:   7.5911E+01 [m/d]
 CFL Limiting ( 1.0):   1.0539E-02 ->   5.2693E-03 [d]

== REACTIVE TRANSPORT ==========================================================
  0 2r: 2.44E-02 2x: 0.00E+00 2u: 0.00E+00 ir: 3.66E-03 iu: 0.00E+00 rsn:   0
  1 2r: 2.28E-15 2x: 5.92E+00 2u: 1.10E-01 ir: 9.44E-16 iu: 1.64E-02 rsn: rtol

 Step     46 Time=  2.07510E-01 Dt=  5.26933E-03 [d] conv_reason: 3
  newton =   1 [      46] linear =     1 [        46] cuts =  0 [   0]
  --> SNES Linear/Non-Linear Iterations = 1 / 1
  --> SNES Residual: 0.228111E-14 0.228111E-14 0.943690E-15
  --> max change:  dcmx=   1.6431E-02  dc/dt=   3.6091E-05 [mol/s]
 Maximum Pore Velocity:   7.5911E+01 [m/d]
 CFL Limiting ( 1.0):   1.0539E-02 ->   5.2693E-03 [d]

== REACTIVE TRANSPORT ==========================================================
  0 2r: 2.42E-02 2x: 0.00E+00 2u: 0.00E+00 ir: 3.60E-03 iu: 0.00E+00 rsn:   0
  1 2r: 3.67E-15 2x: 5.99E+00 2u: 1.09E-01 ir: 1.39E-15 iu: 1.62E-02 rsn: rtol

 Step     47 Time=  2.12780E-01 Dt=  5.26933E-03 [d] conv_reason: 3
  newton =   1 [      47] linear =     1 [        47] cuts =  0 [   0]
  --> SNES Linear/Non-Linear Iterations = 1 / 1
  --> SNES Residual: 0.367239E-14 0.367239E-14 0.138778E-14
  --> max change:  dcmx=   1.6167E-02  dc/dt=   3.5512E-05 [mol/s]
 Maximum Pore Velocity:   7.5911E+01 [m/d]
 CFL Limiting ( 1.0):   1.0539E-02 ->   5.2693E-03 [d]

== REACTIVE TRANSPORT ==========================================================
  0 2r: 2.40E-02 2x: 0.00E+00 2u: 0.00E+00 ir: 3.54E-03 iu: 0.00E+00 rsn:   0
  1 2r: 3.34E-15 2x: 6.06E+00 2u: 1.08E-01 ir: 1.39E-15 iu: 1.59E-02 rsn: rtol

 Step     48 Time=  2.18049E-01 Dt=  5.26933E-03 [d] conv_reason: 3
  newton =   1 [      48] linear =     1 [        48] cuts =  0 [   0]
  --> SNES Linear/Non-Linear Iterations = 1 / 1
  --> SNES Residual: 0.333614E-14 0.333614E-14 0.138778E-14
  --> max change:  dcmx=   1.5915E-02  dc/dt=   3.4957E-05 [mol/s]
 Maximum Pore Velocity:   7.5911E+01 [m/d]
 CFL Limiting ( 1.0):   1.0539E-02 ->   5.2693E-03 [d]

== REACTIVE TRANSPORT ==========================================================
  0 2r: 2.37E-02 2x: 0.00E+00 2u: 0.00E+00 ir: 3.49E-03 iu: 0.00E+00 rsn:   0
  1 2r: 2.72E-15 2x: 6.13E+00 2u: 1.07E-01 ir: 8.60E-16 iu: 1.57E-02 rsn: rtol

 Step     49 Time=  2.23318E-01 Dt=  5.26933E-03 [d] conv_reason: 3
  newton =   1 [      49] linear =     1 [        49] cuts =  0 [   0]
  --> SNES Linear/Non-Linear Iterations = 1 / 1
  --> SNES Residual: 0.272012E-14 0.272012E-14 0.860423E-15
  --> max change:  dcmx=   1.5675E-02  dc/dt=   3.4429E-05 [mol/s]
 Maximum Pore Velocity:   7.5911E+01 [m/d]
 CFL Limiting ( 1.0):   1.0539E-02 ->   5.2693E-03 [d]

== REACTIVE TRANSPORT ==========================================================
  0 2r: 2.35E-02 2x: 0.00E+00 2u: 0.00E+00 ir: 3.43E-03 iu: 0.00E+00 rsn:   0
  1 2r: 2.94E-15 2x: 6.20E+00 2u: 1.07E-01 ir: 1.19E-15 iu: 1.54E-02 rsn: rtol

 Step     50 Time=  2.28588E-01 Dt=  5.26933E-03 [d] conv_reason: 3
  newton =   1 [      50] linear =     1 [        50] cuts =  0 [   0]
  --> SNES Linear/Non-Linear Iterations = 1 / 1
  --> SNES Residual: 0.294391E-14 0.294391E-14 0.119349E-14
  --> max change:  dcmx=   1.5445E-02  dc/dt=   3.3924E-05 [mol/s]
 Maximum Pore Velocity:   7.5911E+01 [m/d]
 CFL Limiting ( 1.0):   1.0539E-02 ->   5.2693E-03 [d]

== REACTIVE TRANSPORT ==========================================================
  0 2r: 2.33E-02 2x: 0.00E+00 2u: 0.00E+00 ir: 3.38E-03 iu: 0.00E+00 rsn:   0
  1 2r: 3.66E-15 2x: 6.26E+00 2u: 1.06E-01 ir: 1.17E-15 iu: 1.52E-02 rsn: rtol

 Step     51 Time=  2.33857E-01 Dt=  5.26933E-03 [d] conv_reason: 3
  newton =   1 [      51] linear =     1 [        51] cuts =  0 [   0]
  --> SNES Linear/Non-Linear Iterations = 1 / 1
  --> SNES Residual: 0.366104E-14 0.366104E-14 0.116573E-14
  --> max change:  dcmx=   1.5224E-02  dc/dt=   3.3440E-05 [mol/s]
 Maximum Pore Velocity:   7.5911E+01 [m/d]
 CFL Limiting ( 1.0):   1.0539E-02 ->   5.2693E-03 [d]

== REACTIVE TRANSPORT ==========================================================
  0 2r: 2.31E-02 2x: 0.00E+00 2u: 0.00E+00 ir: 3.33E-03 iu: 0.00E+00 rsn:   0
  1 2r: 3.32E-15 2x: 6.33E+00 2u: 1.05E-01 ir: 1.14E-15 iu: 1.50E-02 rsn: rtol

 Step     52 Time=  2.39126E-01 Dt=  5.26933E-03 [d] conv_reason: 3
  newton =   1 [      52] linear =     1 [        52] cuts =  0 [   0]
  --> SNES Linear/Non-Linear Iterations = 1 / 1
  --> SNES Residual: 0.331634E-14 0.331634E-14 0.113798E-14
  --> max change:  dcmx=   1.5012E-02  dc/dt=   3.2974E-05 [mol/s]
 Maximum Pore Velocity:   7.5911E+01 [m/d]
 CFL Limiting ( 1.0):   1.0539E-02 ->   5.2693E-03 [d]

== REACTIVE TRANSPORT ==========================================================
  0 2r: 2.29E-02 2x: 0.00E+00 2u: 0.00E+00 ir: 3.29E-03 iu: 0.00E+00 rsn:   0
  1 2r: 3.24E-15 2x: 6.39E+00 2u: 1.04E-01 ir: 1.05E-15 iu: 1.48E-02 rsn: rtol

 Step     53 Time=  2.44396E-01 Dt=  5.26933E-03 [d] conv_reason: 3
  newton =   1 [      53] linear =     1 [        53] cuts =  0 [   0]
  --> SNES Linear/Non-Linear Iterations = 1 / 1
  --> SNES Residual: 0.323553E-14 0.323553E-14 0.105471E-14
  --> max change:  dcmx=   1.4809E-02  dc/dt=   3.2527E-05 [mol/s]
 Maximum Pore Velocity:   7.5911E+01 [m/d]
 CFL Limiting ( 1.0):   1.0539E-02 ->   5.2693E-03 [d]

== REACTIVE TRANSPORT ==========================================================
  0 2r: 2.27E-02 2x: 0.00E+00 2u: 0.00E+00 ir: 3.24E-03 iu: 0.00E+00 rsn:   0
  1 2r: 3.06E-15 2x: 6.46E+00 2u: 1.03E-01 ir: 8.88E-16 iu: 1.46E-02 rsn: rtol

 Step     54 Time=  2.49665E-01 Dt=  5.26933E-03 [d] conv_reason: 3
  newton =   1 [      54] linear =     1 [        54] cuts =  0 [   0]
  --> SNES Linear/Non-Linear Iterations = 1 / 1
  --> SNES Residual: 0.306392E-14 0.306392E-14 0.888178E-15
  --> max change:  dcmx=   1.4613E-02  dc/dt=   3.2098E-05 [mol/s]
 Maximum Pore Velocity:   7.5911E+01 [m/d]
 CFL Limiting ( 1.0):   1.0539E-02 ->   5.2693E-03 [d]

== REACTIVE TRANSPORT ==========================================================
  0 2r: 2.25E-02 2x: 0.00E+00 2u: 0.00E+00 ir: 3.20E-03 iu: 0.00E+00 rsn:   0
  1 2r: 3.44E-15 2x: 6.52E+00 2u: 1.02E-01 ir: 1.14E-15 iu: 1.44E-02 rsn: rtol

 Step     55 Time=  2.54934E-01 Dt=  5.26933E-03 [d] conv_reason: 3
  newton =   1 [      55] linear =     1 [        55] cuts =  0 [   0]
  --> SNES Linear/Non-Linear Iterations = 1 / 1
  --> SNES Residual: 0.343907E-14 0.343907E-14 0.113798E-14
  --> max change:  dcmx=   1.4425E-02  dc/dt=   3.1685E-05 [mol/s]
 Maximum Pore Velocity:   7.5911E+01 [m/d]
 CFL Limiting ( 1.0):   1.0539E-02 ->   5.2693E-03 [d]

== REACTIVE TRANSPORT ==========================================================
  0 2r: 2.23E-02 2x: 0.00E+00 2u: 0.00E+00 ir: 3.16E-03 iu: 0.00E+00 rsn:   0
  1 2r: 3.27E-15 2x: 6.58E+00 2u: 1.01E-01 ir: 1.11E-15 iu: 1.42E-02 rsn: rtol

 Step     56 Time=  2.60204E-01 Dt=  5.26933E-03 [d] conv_reason: 3
  newton =   1 [      56] linear =     1 [        56] cuts =  0 [   0]
  --> SNES Linear/Non-Linear Iterations = 1 / 1
  --> SNES Residual: 0.326659E-14 0.326659E-14 0.111022E-14
  --> max change:  dcmx=   1.4245E-02  dc/dt=   3.1289E-05 [mol/s]
 Maximum Pore Velocity:   7.5911E+01 [m/d]
 CFL Limiting ( 1.0):   1.0539E-02 ->   5.2693E-03 [d]

== REACTIVE TRANSPORT ==========================================================
  0 2r: 2.21E-02 2x: 0.00E+00 2u: 0.00E+00 ir: 3.12E-03 iu: 0.00E+00 rsn:   0
  1 2r: 2.88E-15 2x: 6.64E+00 2u: 1.00E-01 ir: 1.05E-15 iu: 1.41E-02 rsn: rtol

 Step     57 Time=  2.65473E-01 Dt=  5.26933E-03 [d] conv_reason: 3
  newton =   1 [      57] linear =     1 [        57] cuts =  0 [   0]
  --> SNES Linear/Non-Linear Iterations = 1 / 1
  --> SNES Residual: 0.288276E-14 0.288276E-14 0.105471E-14
  --> max change:  dcmx=   1.4071E-02  dc/dt=   3.0907E-05 [mol/s]
 Maximum Pore Velocity:   7.5911E+01 [m/d]
 CFL Limiting ( 1.0):   1.0539E-02 ->   5.2693E-03 [d]

== REACTIVE TRANSPORT ==========================================================
  0 2r: 2.19E-02 2x: 0.00E+00 2u: 0.00E+00 ir: 3.08E-03 iu: 0.00E+00 rsn:   0
  1 2r: 3.11E-15 2x: 6.71E+00 2u: 9.91E-02 ir: 1.08E-15 iu: 1.39E-02 rsn: rtol

 Step     58 Time=  2.70742E-01 Dt=  5.26933E-03 [d] conv_reason: 3
  newton =   1 [      58] linear =     1 [        58] cuts =  0 [   0]
  --> SNES Linear/Non-Linear Iterations = 1 / 1
  --> SNES Residual: 0.310871E-14 0.310871E-14 0.108247E-14
  --> max change:  dcmx=   1.3905E-02  dc/dt=   3.0541E-05 [mol/s]
 Maximum Pore Velocity:   7.5911E+01 [m/d]
 CFL Limiting ( 1.0):   1.0539E-02 ->   5.2693E-03 [d]

== REACTIVE TRANSPORT ==========================================================
  0 2r: 2.17E-02 2x: 0.00E+00 2u: 0.00E+00 ir: 3.05E-03 iu: 0.00E+00 rsn:   0
  1 2r: 3.49E-15 2x: 6.77E+00 2u: 9.81E-02 ir: 1.17E-15 iu: 1.37E-02 rsn: rtol

 Step     59 Time=  2.76012E-01 Dt=  5.26933E-03 [d] conv_reason: 3
  newton =   1 [      59] linear =     1 [        59] cuts =  0 [   0]
  --> SNES Linear/Non-Linear Iterations = 1 / 1
  --> SNES Residual: 0.349471E-14 0.349471E-14 0.116573E-14
  --> max change:  dcmx=   1.3745E-02  dc/dt=   3.0191E-05 [mol/s]
 Maximum Pore Velocity:   7.5911E+01 [m/d]
 CFL Limiting ( 1.0):   1.0539E-02 ->   5.2693E-03 [d]

== REACTIVE TRANSPORT ==========================================================
  0 2r: 2.15E-02 2x: 0.00E+00 2u: 0.00E+00 ir: 3.01E-03 iu: 0.00E+00 rsn:   0
  1 2r: 2.94E-15 2x: 6.83E+00 2u: 9.72E-02 ir: 8.60E-16 iu: 1.36E-02 rsn: rtol

 Step     60 Time=  2.81281E-01 Dt=  5.26933E-03 [d] conv_reason: 3
  newton =   1 [      60] linear =     1 [        60] cuts =  0 [   0]
  --> SNES Linear/Non-Linear Iterations = 1 / 1
  --> SNES Residual: 0.293996E-14 0.293996E-14 0.860423E-15
  --> max change:  dcmx=   1.3594E-02  dc/dt=   2.9858E-05 [mol/s]
 Maximum Pore Velocity:   7.5911E+01 [m/d]
 CFL Limiting ( 1.0):   1.0539E-02 ->   5.2693E-03 [d]

== REACTIVE TRANSPORT ==========================================================
  0 2r: 2.13E-02 2x: 0.00E+00 2u: 0.00E+00 ir: 2.98E-03 iu: 0.00E+00 rsn:   0
  1 2r: 3.78E-15 2x: 6.89E+00 2u: 9.62E-02 ir: 1.47E-15 iu: 1.34E-02 rsn: rtol

 Step     61 Time=  2.86550E-01 Dt=  5.26933E-03 [d] conv_reason: 3
  newton =   1 [      61] linear =     1 [        61] cuts =  0 [   0]
  --> SNES Linear/Non-Linear Iterations = 1 / 1
  --> SNES Residual: 0.378307E-14 0.378307E-14 0.147105E-14
  --> max change:  dcmx=   1.3448E-02  dc/dt=   2.9539E-05 [mol/s]
 Maximum Pore Velocity:   7.5911E+01 [m/d]
 CFL Limiting ( 1.0):   1.0539E-02 ->   5.2693E-03 [d]

== REACTIVE TRANSPORT ==========================================================
  0 2r: 2.11E-02 2x: 0.00E+00 2u: 0.00E+00 ir: 2.95E-03 iu: 0.00E+00 rsn:   0
  1 2r: 2.80E-15 2x: 6.95E+00 2u: 9.52E-02 ir: 8.88E-16 iu: 1.33E-02 rsn: rtol

 Step     62 Time=  2.91820E-01 Dt=  5.26933E-03 [d] conv_reason: 3
  newton =   1 [      62] linear =     1 [        62] cuts =  0 [   0]
  --> SNES Linear/Non-Linear Iterations = 1 / 1
  --> SNES Residual: 0.279591E-14 0.279591E-14 0.888178E-15
  --> max change:  dcmx=   1.3309E-02  dc/dt=   2.9234E-05 [mol/s]
 Maximum Pore Velocity:   7.5911E+01 [m/d]
 CFL Limiting ( 1.0):   1.0539E-02 ->   5.2693E-03 [d]

== REACTIVE TRANSPORT ==========================================================
  0 2r: 2.08E-02 2x: 0.00E+00 2u: 0.00E+00 ir: 2.92E-03 iu: 0.00E+00 rsn:   0
  1 2r: 3.59E-15 2x: 7.01E+00 2u: 9.42E-02 ir: 1.17E-15 iu: 1.32E-02 rsn: rtol

 Step     63 Time=  2.97089E-01 Dt=  5.26933E-03 [d] conv_reason: 3
  newton =   1 [      63] linear =     1 [        63] cuts =  0 [   0]
  --> SNES Linear/Non-Linear Iterations = 1 / 1
  --> SNES Residual: 0.359405E-14 0.359405E-14 0.116573E-14
  --> max change:  dcmx=   1.3177E-02  dc/dt=   2.8942E-05 [mol/s]
 Maximum Pore Velocity:   7.5911E+01 [m/d]
 CFL Limiting ( 1.0):   1.0539E-02 ->   5.2693E-03 [d]

== REACTIVE TRANSPORT ==========================================================
  0 2r: 2.06E-02 2x: 0.00E+00 2u: 0.00E+00 ir: 2.89E-03 iu: 0.00E+00 rsn:   0
  1 2r: 3.42E-15 2x: 7.06E+00 2u: 9.31E-02 ir: 1.19E-15 iu: 1.30E-02 rsn: rtol

 Step     64 Time=  3.02358E-01 Dt=  5.26933E-03 [d] conv_reason: 3
  newton =   1 [      64] linear =     1 [        64] cuts =  0 [   0]
  --> SNES Linear/Non-Linear Iterations = 1 / 1
  --> SNES Residual: 0.342046E-14 0.342046E-14 0.119349E-14
  --> max change:  dcmx=   1.3050E-02  dc/dt=   2.8664E-05 [mol/s]
 Maximum Pore Velocity:   7.5911E+01 [m/d]
 CFL Limiting ( 1.0):   1.0539E-02 ->   5.2693E-03 [d]

== REACTIVE TRANSPORT ==========================================================
  0 2r: 2.04E-02 2x: 0.00E+00 2u: 0.00E+00 ir: 2.86E-03 iu: 0.00E+00 rsn:   0
  1 2r: 3.66E-15 2x: 7.12E+00 2u: 9.21E-02 ir: 9.71E-16 iu: 1.29E-02 rsn: rtol

 Step     65 Time=  3.07628E-01 Dt=  5.26933E-03 [d] conv_reason: 3
  newton =   1 [      65] linear =     1 [        65] cuts =  0 [   0]
  --> SNES Linear/Non-Linear Iterations = 1 / 1
  --> SNES Residual: 0.365729E-14 0.365729E-14 0.971445E-15
  --> max change:  dcmx=   1.2932E-02  dc/dt=   2.8406E-05 [mol/s]
 Maximum Pore Velocity:   7.5911E+01 [m/d]
 CFL Limiting ( 1.0):   1.0539E-02 ->   5.2693E-03 [d]

== REACTIVE TRANSPORT ==========================================================
  0 2r: 2.02E-02 2x: 0.00E+00 2u: 0.00E+00 ir: 2.83E-03 iu: 0.00E+00 rsn:   0
  1 2r: 3.96E-15 2x: 7.18E+00 2u: 9.10E-02 ir: 1.30E-15 iu: 1.28E-02 rsn: rtol

 Step     66 Time=  3.12897E-01 Dt=  5.26933E-03 [d] conv_reason: 3
  newton =   1 [      66] linear =     1 [        66] cuts =  0 [   0]
  --> SNES Linear/Non-Linear Iterations = 1 / 1
  --> SNES Residual: 0.396332E-14 0.396332E-14 0.130451E-14
  --> max change:  dcmx=   1.2821E-02  dc/dt=   2.8161E-05 [mol/s]
 Maximum Pore Velocity:   7.5911E+01 [m/d]
 CFL Limiting ( 1.0):   1.0539E-02 ->   5.2693E-03 [d]

== REACTIVE TRANSPORT ==========================================================
  0 2r: 1.99E-02 2x: 0.00E+00 2u: 0.00E+00 ir: 2.81E-03 iu: 0.00E+00 rsn:   0
  1 2r: 3.99E-15 2x: 7.24E+00 2u: 9.00E-02 ir: 1.14E-15 iu: 1.27E-02 rsn: rtol

 Step     67 Time=  3.18166E-01 Dt=  5.26933E-03 [d] conv_reason: 3
  newton =   1 [      67] linear =     1 [        67] cuts =  0 [   0]
  --> SNES Linear/Non-Linear Iterations = 1 / 1
  --> SNES Residual: 0.398532E-14 0.398532E-14 0.113798E-14
  --> max change:  dcmx=   1.2715E-02  dc/dt=   2.7929E-05 [mol/s]
 Maximum Pore Velocity:   7.5911E+01 [m/d]
 CFL Limiting ( 1.0):   1.0539E-02 ->   5.2693E-03 [d]

== REACTIVE TRANSPORT ==========================================================
  0 2r: 1.97E-02 2x: 0.00E+00 2u: 0.00E+00 ir: 2.79E-03 iu: 0.00E+00 rsn:   0
  1 2r: 3.82E-15 2x: 7.29E+00 2u: 8.89E-02 ir: 1.36E-15 iu: 1.26E-02 rsn: rtol

 Step     68 Time=  3.23436E-01 Dt=  5.26933E-03 [d] conv_reason: 3
  newton =   1 [      68] linear =     1 [        68] cuts =  0 [   0]
  --> SNES Linear/Non-Linear Iterations = 1 / 1
  --> SNES Residual: 0.381849E-14 0.381849E-14 0.136002E-14
  --> max change:  dcmx=   1.2620E-02  dc/dt=   2.7719E-05 [mol/s]
 Maximum Pore Velocity:   7.5911E+01 [m/d]
 CFL Limiting ( 1.0):   1.0539E-02 ->   5.2693E-03 [d]

== REACTIVE TRANSPORT ==========================================================
  0 2r: 1.95E-02 2x: 0.00E+00 2u: 0.00E+00 ir: 2.76E-03 iu: 0.00E+00 rsn:   0
  1 2r: 3.98E-15 2x: 7.35E+00 2u: 8.78E-02 ir: 1.19E-15 iu: 1.25E-02 rsn: rtol

 Step     69 Time=  3.28705E-01 Dt=  5.26933E-03 [d] conv_reason: 3
  newton =   1 [      69] linear =     1 [        69] cuts =  0 [   0]
  --> SNES Linear/Non-Linear Iterations = 1 / 1
  --> SNES Residual: 0.398361E-14 0.398361E-14 0.119349E-14
  --> max change:  dcmx=   1.2530E-02  dc/dt=   2.7522E-05 [mol/s]
 Maximum Pore Velocity:   7.5911E+01 [m/d]
 CFL Limiting ( 1.0):   1.0539E-02 ->   5.2693E-03 [d]

== REACTIVE TRANSPORT ==========================================================
  0 2r: 1.92E-02 2x: 0.00E+00 2u: 0.00E+00 ir: 2.74E-03 iu: 0.00E+00 rsn:   0
  1 2r: 3.95E-15 2x: 7.40E+00 2u: 8.66E-02 ir: 1.42E-15 iu: 1.24E-02 rsn: rtol

 Step     70 Time=  3.33974E-01 Dt=  5.26933E-03 [d] conv_reason: 3
  newton =   1 [      70] linear =     1 [        70] cuts =  0 [   0]
  --> SNES Linear/Non-Linear Iterations = 1 / 1
  --> SNES Residual: 0.395311E-14 0.395311E-14 0.141553E-14
  --> max change:  dcmx=   1.2450E-02  dc/dt=   2.7346E-05 [mol/s]
 Maximum Pore Velocity:   7.5911E+01 [m/d]
 CFL Limiting ( 1.0):   1.0539E-02 ->   5.2693E-03 [d]

== REACTIVE TRANSPORT ==========================================================
  0 2r: 1.90E-02 2x: 0.00E+00 2u: 0.00E+00 ir: 2.73E-03 iu: 0.00E+00 rsn:   0
  1 2r: 3.89E-15 2x: 7.45E+00 2u: 8.55E-02 ir: 1.28E-15 iu: 1.24E-02 rsn: rtol

 Step     71 Time=  3.39244E-01 Dt=  5.26933E-03 [d] conv_reason: 3
  newton =   1 [      71] linear =     1 [        71] cuts =  0 [   0]
  --> SNES Linear/Non-Linear Iterations = 1 / 1
  --> SNES Residual: 0.389088E-14 0.389088E-14 0.127676E-14
  --> max change:  dcmx=   1.2378E-02  dc/dt=   2.7189E-05 [mol/s]
 Maximum Pore Velocity:   7.5911E+01 [m/d]
 CFL Limiting ( 1.0):   1.0539E-02 ->   5.2693E-03 [d]

== REACTIVE TRANSPORT ==========================================================
  0 2r: 1.87E-02 2x: 0.00E+00 2u: 0.00E+00 ir: 2.71E-03 iu: 0.00E+00 rsn:   0
  1 2r: 4.23E-15 2x: 7.48E+00 2u: 3.31E-02 ir: 1.22E-15 iu: 4.80E-03 rsn: rtol

 Step     72 Time=  3.41292E-01 Dt=  2.04801E-03 [d] conv_reason: 3
  newton =   1 [      72] linear =     1 [        72] cuts =  0 [   0]
  --> SNES Linear/Non-Linear Iterations = 1 / 1
  --> SNES Residual: 0.422724E-14 0.422724E-14 0.122125E-14
  --> max change:  dcmx=   4.8017E-03  dc/dt=   2.7136E-05 [mol/s]
 Maximum Pore Velocity:   7.5911E+01 [m/d]

== RICHARDS FLOW ===============================================================
  0 2r: 4.78E-15 2x: 0.00E+00 2u: 0.00E+00 ir: 1.48E-15 iu: 0.00E+00 rsn:   0
  1 2r: 4.78E-15 2x: 1.26E+06 2u: 6.11E-11 ir: 1.48E-15 iu: 1.45E-11 rsn: stol

 Step     14 Time=  6.82625E-01 Dt=  3.41333E-01 [d] conv_reason: 4
  newton =   1 [      15] linear =     1 [        15] cuts =  0 [   0]
  --> SNES Linear/Non-Linear Iterations = 1 / 1
  --> SNES Residual: 0.478289E-14 0.478289E-16 0.148319E-14
  --> max change: dpmx=   0.0000E+00

== REACTIVE TRANSPORT ==========================================================
  0 2r: 1.86E-02 2x: 0.00E+00 2u: 0.00E+00 ir: 2.71E-03 iu: 0.00E+00 rsn:   0
  1 2r: 4.25E-15 2x: 7.53E+00 2u: 8.39E-02 ir: 1.53E-15 iu: 1.23E-02 rsn: rtol

 Step     73 Time=  3.46561E-01 Dt=  5.26933E-03 [d] conv_reason: 3
  newton =   1 [      73] linear =     1 [        73] cuts =  0 [   0]
  --> SNES Linear/Non-Linear Iterations = 1 / 1
  --> SNES Residual: 0.425360E-14 0.425360E-14 0.152656E-14
  --> max change:  dcmx=   1.2297E-02  dc/dt=   2.7010E-05 [mol/s]
 Maximum Pore Velocity:   7.5911E+01 [m/d]
 CFL Limiting ( 1.0):   1.0539E-02 ->   5.2693E-03 [d]

== REACTIVE TRANSPORT ==========================================================
  0 2r: 1.84E-02 2x: 0.00E+00 2u: 0.00E+00 ir: 2.69E-03 iu: 0.00E+00 rsn:   0
  1 2r: 3.48E-15 2x: 7.58E+00 2u: 8.27E-02 ir: 9.99E-16 iu: 1.23E-02 rsn: rtol

 Step     74 Time=  3.51830E-01 Dt=  5.26933E-03 [d] conv_reason: 3
  newton =   1 [      74] linear =     1 [        74] cuts =  0 [   0]
  --> SNES Linear/Non-Linear Iterations = 1 / 1
  --> SNES Residual: 0.347757E-14 0.347757E-14 0.999201E-15
  --> max change:  dcmx=   1.2250E-02  dc/dt=   2.6908E-05 [mol/s]
 Maximum Pore Velocity:   7.5911E+01 [m/d]
 CFL Limiting ( 1.0):   1.0539E-02 ->   5.2693E-03 [d]

== REACTIVE TRANSPORT ==========================================================
  0 2r: 1.81E-02 2x: 0.00E+00 2u: 0.00E+00 ir: 2.68E-03 iu: 0.00E+00 rsn:   0
  1 2r: 3.60E-15 2x: 7.63E+00 2u: 8.15E-02 ir: 9.99E-16 iu: 1.22E-02 rsn: rtol

 Step     75 Time=  3.57100E-01 Dt=  5.26933E-03 [d] conv_reason: 3
  newton =   1 [      75] linear =     1 [        75] cuts =  0 [   0]
  --> SNES Linear/Non-Linear Iterations = 1 / 1
  --> SNES Residual: 0.359724E-14 0.359724E-14 0.999201E-15
  --> max change:  dcmx=   1.2217E-02  dc/dt=   2.6834E-05 [mol/s]
 Maximum Pore Velocity:   7.5911E+01 [m/d]
 CFL Limiting ( 1.0):   1.0539E-02 ->   5.2693E-03 [d]

== REACTIVE TRANSPORT ==========================================================
  0 2r: 1.79E-02 2x: 0.00E+00 2u: 0.00E+00 ir: 2.68E-03 iu: 0.00E+00 rsn:   0
  1 2r: 4.18E-15 2x: 7.68E+00 2u: 8.03E-02 ir: 1.30E-15 iu: 1.22E-02 rsn: rtol

 Step     76 Time=  3.62369E-01 Dt=  5.26933E-03 [d] conv_reason: 3
  newton =   1 [      76] linear =     1 [        76] cuts =  0 [   0]
  --> SNES Linear/Non-Linear Iterations = 1 / 1
  --> SNES Residual: 0.417631E-14 0.417631E-14 0.130451E-14
  --> max change:  dcmx=   1.2199E-02  dc/dt=   2.6796E-05 [mol/s]
 Maximum Pore Velocity:   7.5911E+01 [m/d]
 CFL Limiting ( 1.0):   1.0539E-02 ->   5.2693E-03 [d]

== REACTIVE TRANSPORT ==========================================================
  0 2r: 1.76E-02 2x: 0.00E+00 2u: 0.00E+00 ir: 2.67E-03 iu: 0.00E+00 rsn:   0
  1 2r: 3.87E-15 2x: 7.73E+00 2u: 7.91E-02 ir: 9.71E-16 iu: 1.22E-02 rsn: rtol

 Step     77 Time=  3.67638E-01 Dt=  5.26933E-03 [d] conv_reason: 3
  newton =   1 [      77] linear =     1 [        77] cuts =  0 [   0]
  --> SNES Linear/Non-Linear Iterations = 1 / 1
  --> SNES Residual: 0.386775E-14 0.386775E-14 0.971445E-15
  --> max change:  dcmx=   1.2186E-02  dc/dt=   2.6767E-05 [mol/s]
 Maximum Pore Velocity:   7.5911E+01 [m/d]
 CFL Limiting ( 1.0):   1.0539E-02 ->   5.2693E-03 [d]

== REACTIVE TRANSPORT ==========================================================
  0 2r: 1.73E-02 2x: 0.00E+00 2u: 0.00E+00 ir: 2.67E-03 iu: 0.00E+00 rsn:   0
  1 2r: 3.58E-15 2x: 7.78E+00 2u: 7.79E-02 ir: 1.08E-15 iu: 1.22E-02 rsn: rtol

 Step     78 Time=  3.72908E-01 Dt=  5.26933E-03 [d] conv_reason: 3
  newton =   1 [      78] linear =     1 [        78] cuts =  0 [   0]
  --> SNES Linear/Non-Linear Iterations = 1 / 1
  --> SNES Residual: 0.357665E-14 0.357665E-14 0.108247E-14
  --> max change:  dcmx=   1.2160E-02  dc/dt=   2.6710E-05 [mol/s]
 Maximum Pore Velocity:   7.5911E+01 [m/d]
 CFL Limiting ( 1.0):   1.0539E-02 ->   5.2693E-03 [d]

== REACTIVE TRANSPORT ==========================================================
  0 2r: 1.71E-02 2x: 0.00E+00 2u: 0.00E+00 ir: 2.66E-03 iu: 0.00E+00 rsn:   0
  1 2r: 3.94E-15 2x: 7.83E+00 2u: 7.67E-02 ir: 9.44E-16 iu: 1.21E-02 rsn: rtol

 Step     79 Time=  3.78177E-01 Dt=  5.26933E-03 [d] conv_reason: 3
  newton =   1 [      79] linear =     1 [        79] cuts =  0 [   0]
  --> SNES Linear/Non-Linear Iterations = 1 / 1
  --> SNES Residual: 0.394132E-14 0.394132E-14 0.943690E-15
  --> max change:  dcmx=   1.2122E-02  dc/dt=   2.6627E-05 [mol/s]
 Maximum Pore Velocity:   7.5911E+01 [m/d]
 CFL Limiting ( 1.0):   1.0539E-02 ->   5.2693E-03 [d]

== REACTIVE TRANSPORT ==========================================================
  0 2r: 1.68E-02 2x: 0.00E+00 2u: 0.00E+00 ir: 2.66E-03 iu: 0.00E+00 rsn:   0
  1 2r: 3.40E-15 2x: 7.88E+00 2u: 7.55E-02 ir: 9.71E-16 iu: 1.21E-02 rsn: rtol

 Step     80 Time=  3.83446E-01 Dt=  5.26933E-03 [d] conv_reason: 3
  newton =   1 [      80] linear =     1 [        80] cuts =  0 [   0]
  --> SNES Linear/Non-Linear Iterations = 1 / 1
  --> SNES Residual: 0.340357E-14 0.340357E-14 0.971445E-15
  --> max change:  dcmx=   1.2073E-02  dc/dt=   2.6519E-05 [mol/s]
 Maximum Pore Velocity:   7.5911E+01 [m/d]
 CFL Limiting ( 1.0):   1.0539E-02 ->   5.2693E-03 [d]

== REACTIVE TRANSPORT ==========================================================
  0 2r: 1.65E-02 2x: 0.00E+00 2u: 0.00E+00 ir: 2.64E-03 iu: 0.00E+00 rsn:   0
  1 2r: 4.06E-15 2x: 7.93E+00 2u: 7.42E-02 ir: 1.55E-15 iu: 1.20E-02 rsn: rtol

 Step     81 Time=  3.88716E-01 Dt=  5.26933E-03 [d] conv_reason: 3
  newton =   1 [      81] linear =     1 [        81] cuts =  0 [   0]
  --> SNES Linear/Non-Linear Iterations = 1 / 1
  --> SNES Residual: 0.406494E-14 0.406494E-14 0.155431E-14
  --> max change:  dcmx=   1.2013E-02  dc/dt=   2.6387E-05 [mol/s]
 Maximum Pore Velocity:   7.5911E+01 [m/d]
 CFL Limiting ( 1.0):   1.0539E-02 ->   5.2693E-03 [d]

== REACTIVE TRANSPORT ==========================================================
  0 2r: 1.63E-02 2x: 0.00E+00 2u: 0.00E+00 ir: 2.63E-03 iu: 0.00E+00 rsn:   0
  1 2r: 4.32E-15 2x: 7.98E+00 2u: 7.30E-02 ir: 1.39E-15 iu: 1.19E-02 rsn: rtol

 Step     82 Time=  3.93985E-01 Dt=  5.26933E-03 [d] conv_reason: 3
  newton =   1 [      82] linear =     1 [        82] cuts =  0 [   0]
  --> SNES Linear/Non-Linear Iterations = 1 / 1
  --> SNES Residual: 0.432030E-14 0.432030E-14 0.138778E-14
  --> max change:  dcmx=   1.1943E-02  dc/dt=   2.6232E-05 [mol/s]
 Maximum Pore Velocity:   7.5911E+01 [m/d]
 CFL Limiting ( 1.0):   1.0539E-02 ->   5.2693E-03 [d]

== REACTIVE TRANSPORT ==========================================================
  0 2r: 1.60E-02 2x: 0.00E+00 2u: 0.00E+00 ir: 2.62E-03 iu: 0.00E+00 rsn:   0
  1 2r: 3.85E-15 2x: 8.02E+00 2u: 7.17E-02 ir: 1.22E-15 iu: 1.19E-02 rsn: rtol

 Step     83 Time=  3.99254E-01 Dt=  5.26933E-03 [d] conv_reason: 3
  newton =   1 [      83] linear =     1 [        83] cuts =  0 [   0]
  --> SNES Linear/Non-Linear Iterations = 1 / 1
  --> SNES Residual: 0.385175E-14 0.385175E-14 0.122125E-14
  --> max change:  dcmx=   1.1863E-02  dc/dt=   2.6057E-05 [mol/s]
 Maximum Pore Velocity:   7.5911E+01 [m/d]
 CFL Limiting ( 1.0):   1.0539E-02 ->   5.2693E-03 [d]

== REACTIVE TRANSPORT ==========================================================
  0 2r: 1.57E-02 2x: 0.00E+00 2u: 0.00E+00 ir: 2.60E-03 iu: 0.00E+00 rsn:   0
  1 2r: 4.27E-15 2x: 8.07E+00 2u: 7.05E-02 ir: 1.47E-15 iu: 1.18E-02 rsn: rtol

 Step     84 Time=  4.04524E-01 Dt=  5.26933E-03 [d] conv_reason: 3
  newton =   1 [      84] linear =     1 [        84] cuts =  0 [   0]
  --> SNES Linear/Non-Linear Iterations = 1 / 1
  --> SNES Residual: 0.426509E-14 0.426509E-14 0.147105E-14
  --> max change:  dcmx=   1.1774E-02  dc/dt=   2.5862E-05 [mol/s]
 Maximum Pore Velocity:   7.5911E+01 [m/d]
 CFL Limiting ( 1.0):   1.0539E-02 ->   5.2693E-03 [d]

== REACTIVE TRANSPORT ==========================================================
  0 2r: 1.54E-02 2x: 0.00E+00 2u: 0.00E+00 ir: 2.58E-03 iu: 0.00E+00 rsn:   0
  1 2r: 3.70E-15 2x: 8.11E+00 2u: 6.93E-02 ir: 1.25E-15 iu: 1.17E-02 rsn: rtol

 Step     85 Time=  4.09793E-01 Dt=  5.26933E-03 [d] conv_reason: 3
  newton =   1 [      85] linear =     1 [        85] cuts =  0 [   0]
  --> SNES Linear/Non-Linear Iterations = 1 / 1
  --> SNES Residual: 0.369803E-14 0.369803E-14 0.124900E-14
  --> max change:  dcmx=   1.1677E-02  dc/dt=   2.5648E-05 [mol/s]
 Maximum Pore Velocity:   7.5911E+01 [m/d]
 CFL Limiting ( 1.0):   1.0539E-02 ->   5.2693E-03 [d]

== REACTIVE TRANSPORT ==========================================================
  0 2r: 1.52E-02 2x: 0.00E+00 2u: 0.00E+00 ir: 2.56E-03 iu: 0.00E+00 rsn:   0
  1 2r: 4.77E-15 2x: 8.16E+00 2u: 6.80E-02 ir: 1.17E-15 iu: 1.16E-02 rsn: rtol

 Step     86 Time=  4.15062E-01 Dt=  5.26933E-03 [d] conv_reason: 3
  newton =   1 [      86] linear =     1 [        86] cuts =  0 [   0]
  --> SNES Linear/Non-Linear Iterations = 1 / 1
  --> SNES Residual: 0.476736E-14 0.476736E-14 0.116573E-14
  --> max change:  dcmx=   1.1572E-02  dc/dt=   2.5418E-05 [mol/s]
 Maximum Pore Velocity:   7.5911E+01 [m/d]
 CFL Limiting ( 1.0):   1.0539E-02 ->   5.2693E-03 [d]

== REACTIVE TRANSPORT ==========================================================
  0 2r: 1.49E-02 2x: 0.00E+00 2u: 0.00E+00 ir: 2.53E-03 iu: 0.00E+00 rsn:   0
  1 2r: 3.66E-15 2x: 8.20E+00 2u: 6.68E-02 ir: 1.08E-15 iu: 1.15E-02 rsn: rtol

 Step     87 Time=  4.20332E-01 Dt=  5.26933E-03 [d] conv_reason: 3
  newton =   1 [      87] linear =     1 [        87] cuts =  0 [   0]
  --> SNES Linear/Non-Linear Iterations = 1 / 1
  --> SNES Residual: 0.366042E-14 0.366042E-14 0.108247E-14
  --> max change:  dcmx=   1.1460E-02  dc/dt=   2.5171E-05 [mol/s]
 Maximum Pore Velocity:   7.5911E+01 [m/d]
 CFL Limiting ( 1.0):   1.0539E-02 ->   5.2693E-03 [d]

== REACTIVE TRANSPORT ==========================================================
  0 2r: 1.46E-02 2x: 0.00E+00 2u: 0.00E+00 ir: 2.51E-03 iu: 0.00E+00 rsn:   0
  1 2r: 4.42E-15 2x: 8.24E+00 2u: 6.55E-02 ir: 1.28E-15 iu: 1.13E-02 rsn: rtol

 Step     88 Time=  4.25601E-01 Dt=  5.26933E-03 [d] conv_reason: 3
  newton =   1 [      88] linear =     1 [        88] cuts =  0 [   0]
  --> SNES Linear/Non-Linear Iterations = 1 / 1
  --> SNES Residual: 0.441536E-14 0.441536E-14 0.127676E-14
  --> max change:  dcmx=   1.1341E-02  dc/dt=   2.4910E-05 [mol/s]
 Maximum Pore Velocity:   7.5911E+01 [m/d]
 CFL Limiting ( 1.0):   1.0539E-02 ->   5.2693E-03 [d]

== REACTIVE TRANSPORT ==========================================================
  0 2r: 1.44E-02 2x: 0.00E+00 2u: 0.00E+00 ir: 2.48E-03 iu: 0.00E+00 rsn:   0
  1 2r: 4.26E-15 2x: 8.28E+00 2u: 6.43E-02 ir: 1.25E-15 iu: 1.12E-02 rsn: rtol

 Step     89 Time=  4.30870E-01 Dt=  5.26933E-03 [d] conv_reason: 3
  newton =   1 [      89] linear =     1 [        89] cuts =  0 [   0]
  --> SNES Linear/Non-Linear Iterations = 1 / 1
  --> SNES Residual: 0.425750E-14 0.425750E-14 0.124900E-14
  --> max change:  dcmx=   1.1216E-02  dc/dt=   2.4636E-05 [mol/s]
 Maximum Pore Velocity:   7.5911E+01 [m/d]
 CFL Limiting ( 1.0):   1.0539E-02 ->   5.2693E-03 [d]

== REACTIVE TRANSPORT ==========================================================
  0 2r: 1.41E-02 2x: 0.00E+00 2u: 0.00E+00 ir: 2.46E-03 iu: 0.00E+00 rsn:   0
  1 2r: 3.76E-15 2x: 8.33E+00 2u: 6.31E-02 ir: 8.88E-16 iu: 1.11E-02 rsn: rtol

 Step     90 Time=  4.36140E-01 Dt=  5.26933E-03 [d] conv_reason: 3
  newton =   1 [      90] linear =     1 [        90] cuts =  0 [   0]
  --> SNES Linear/Non-Linear Iterations = 1 / 1
  --> SNES Residual: 0.376267E-14 0.376267E-14 0.888178E-15
  --> max change:  dcmx=   1.1085E-02  dc/dt=   2.4349E-05 [mol/s]
 Maximum Pore Velocity:   7.5911E+01 [m/d]
 CFL Limiting ( 1.0):   1.0539E-02 ->   5.2693E-03 [d]

== REACTIVE TRANSPORT ==========================================================
  0 2r: 1.38E-02 2x: 0.00E+00 2u: 0.00E+00 ir: 2.43E-03 iu: 0.00E+00 rsn:   0
  1 2r: 4.96E-15 2x: 8.37E+00 2u: 6.19E-02 ir: 1.30E-15 iu: 1.09E-02 rsn: rtol

 Step     91 Time=  4.41409E-01 Dt=  5.26933E-03 [d] conv_reason: 3
  newton =   1 [      91] linear =     1 [        91] cuts =  0 [   0]
  --> SNES Linear/Non-Linear Iterations = 1 / 1
  --> SNES Residual: 0.495932E-14 0.495932E-14 0.130451E-14
  --> max change:  dcmx=   1.0949E-02  dc/dt=   2.4050E-05 [mol/s]
 Maximum Pore Velocity:   7.5911E+01 [m/d]
 CFL Limiting ( 1.0):   1.0539E-02 ->   5.2693E-03 [d]

== REACTIVE TRANSPORT ==========================================================
  0 2r: 1.35E-02 2x: 0.00E+00 2u: 0.00E+00 ir: 2.40E-03 iu: 0.00E+00 rsn:   0
  1 2r: 4.30E-15 2x: 8.41E+00 2u: 6.06E-02 ir: 1.22E-15 iu: 1.08E-02 rsn: rtol

 Step     92 Time=  4.46678E-01 Dt=  5.26933E-03 [d] conv_reason: 3
  newton =   1 [      92] linear =     1 [        92] cuts =  0 [   0]
  --> SNES Linear/Non-Linear Iterations = 1 / 1
  --> SNES Residual: 0.429703E-14 0.429703E-14 0.122125E-14
  --> max change:  dcmx=   1.0809E-02  dc/dt=   2.3742E-05 [mol/s]
 Maximum Pore Velocity:   7.5911E+01 [m/d]
 CFL Limiting ( 1.0):   1.0539E-02 ->   5.2693E-03 [d]

== REACTIVE TRANSPORT ==========================================================
  0 2r: 1.33E-02 2x: 0.00E+00 2u: 0.00E+00 ir: 2.37E-03 iu: 0.00E+00 rsn:   0
  1 2r: 4.77E-15 2x: 8.45E+00 2u: 5.94E-02 ir: 1.25E-15 iu: 1.07E-02 rsn: rtol

 Step     93 Time=  4.51948E-01 Dt=  5.26933E-03 [d] conv_reason: 3
  newton =   1 [      93] linear =     1 [        93] cuts =  0 [   0]
  --> SNES Linear/Non-Linear Iterations = 1 / 1
  --> SNES Residual: 0.477356E-14 0.477356E-14 0.124900E-14
  --> max change:  dcmx=   1.0665E-02  dc/dt=   2.3425E-05 [mol/s]
 Maximum Pore Velocity:   7.5911E+01 [m/d]
 CFL Limiting ( 1.0):   1.0539E-02 ->   5.2693E-03 [d]

== REACTIVE TRANSPORT ==========================================================
  0 2r: 1.30E-02 2x: 0.00E+00 2u: 0.00E+00 ir: 2.34E-03 iu: 0.00E+00 rsn:   0
  1 2r: 3.95E-15 2x: 8.48E+00 2u: 5.82E-02 ir: 9.02E-16 iu: 1.05E-02 rsn: rtol

 Step     94 Time=  4.57217E-01 Dt=  5.26933E-03 [d] conv_reason: 3
  newton =   1 [      94] linear =     1 [        94] cuts =  0 [   0]
  --> SNES Linear/Non-Linear Iterations = 1 / 1
  --> SNES Residual: 0.394622E-14 0.394622E-14 0.902056E-15
  --> max change:  dcmx=   1.0516E-02  dc/dt=   2.3099E-05 [mol/s]
 Maximum Pore Velocity:   7.5911E+01 [m/d]
 CFL Limiting ( 1.0):   1.0539E-02 ->   5.2693E-03 [d]

== REACTIVE TRANSPORT ==========================================================
  0 2r: 1.28E-02 2x: 0.00E+00 2u: 0.00E+00 ir: 2.30E-03 iu: 0.00E+00 rsn:   0
  1 2r: 3.67E-15 2x: 8.52E+00 2u: 5.71E-02 ir: 1.28E-15 iu: 1.04E-02 rsn: rtol

 Step     95 Time=  4.62486E-01 Dt=  5.26933E-03 [d] conv_reason: 3
  newton =   1 [      95] linear =     1 [        95] cuts =  0 [   0]
  --> SNES Linear/Non-Linear Iterations = 1 / 1
  --> SNES Residual: 0.366820E-14 0.366820E-14 0.127676E-14
  --> max change:  dcmx=   1.0365E-02  dc/dt=   2.2766E-05 [mol/s]
 Maximum Pore Velocity:   7.5911E+01 [m/d]
 CFL Limiting ( 1.0):   1.0539E-02 ->   5.2693E-03 [d]

== REACTIVE TRANSPORT ==========================================================
  0 2r: 1.25E-02 2x: 0.00E+00 2u: 0.00E+00 ir: 2.27E-03 iu: 0.00E+00 rsn:   0
  1 2r: 4.42E-15 2x: 8.56E+00 2u: 5.59E-02 ir: 1.28E-15 iu: 1.02E-02 rsn: rtol

 Step     96 Time=  4.67756E-01 Dt=  5.26933E-03 [d] conv_reason: 3
  newton =   1 [      96] linear =     1 [        96] cuts =  0 [   0]
  --> SNES Linear/Non-Linear Iterations = 1 / 1
  --> SNES Residual: 0.442220E-14 0.442220E-14 0.127676E-14
  --> max change:  dcmx=   1.0210E-02  dc/dt=   2.2426E-05 [mol/s]
 Maximum Pore Velocity:   7.5911E+01 [m/d]
 CFL Limiting ( 1.0):   1.0539E-02 ->   5.2693E-03 [d]

== REACTIVE TRANSPORT ==========================================================
  0 2r: 1.22E-02 2x: 0.00E+00 2u: 0.00E+00 ir: 2.24E-03 iu: 0.00E+00 rsn:   0
  1 2r: 5.02E-15 2x: 8.59E+00 2u: 5.47E-02 ir: 1.25E-15 iu: 1.01E-02 rsn: rtol

 Step     97 Time=  4.73025E-01 Dt=  5.26933E-03 [d] conv_reason: 3
  newton =   1 [      97] linear =     1 [        97] cuts =  0 [   0]
  --> SNES Linear/Non-Linear Iterations = 1 / 1
  --> SNES Residual: 0.501708E-14 0.501708E-14 0.124900E-14
  --> max change:  dcmx=   1.0053E-02  dc/dt=   2.2081E-05 [mol/s]
 Maximum Pore Velocity:   7.5911E+01 [m/d]
 CFL Limiting ( 1.0):   1.0539E-02 ->   5.2693E-03 [d]

== REACTIVE TRANSPORT ==========================================================
  0 2r: 1.20E-02 2x: 0.00E+00 2u: 0.00E+00 ir: 2.20E-03 iu: 0.00E+00 rsn:   0
  1 2r: 5.00E-15 2x: 8.63E+00 2u: 5.36E-02 ir: 1.39E-15 iu: 9.89E-03 rsn: rtol

 Step     98 Time=  4.78294E-01 Dt=  5.26933E-03 [d] conv_reason: 3
[...]
  --> SNES Linear/Non-Linear Iterations = 1 / 1
  --> SNES Residual: 0.369452E-14 0.369452E-14 0.971445E-15
  --> max change:  dcmx=   4.4409E-16  dc/dt=   9.7544E-19 [mol/s]
 Maximum Pore Velocity:   7.5911E+01 [m/d]
 CFL Limiting ( 1.0):   1.0539E-02 ->   5.2693E-03 [d]

== REACTIVE TRANSPORT ==========================================================
  0 2r: 5.25E-15 2x: 0.00E+00 2u: 0.00E+00 ir: 2.28E-15 iu: 0.00E+00 rsn:   0
  1 2r: 3.50E-15 2x: 1.00E+01 2u: 9.92E-16 ir: 9.44E-16 iu: 3.56E-16 rsn: stol

 Step   1881 Time=  9.85363E+00 Dt=  5.26933E-03 [d] conv_reason: 4
  newton =   1 [    1985] linear =     1 [      1985] cuts =  0 [   0]
  --> SNES Linear/Non-Linear Iterations = 1 / 1
  --> SNES Residual: 0.350238E-14 0.350238E-14 0.943690E-15
  --> max change:  dcmx=   4.4409E-16  dc/dt=   9.7544E-19 [mol/s]
 Maximum Pore Velocity:   7.5911E+01 [m/d]
 CFL Limiting ( 1.0):   1.0539E-02 ->   5.2693E-03 [d]

== REACTIVE TRANSPORT ==========================================================
  0 2r: 4.99E-15 2x: 0.00E+00 2u: 0.00E+00 ir: 1.39E-15 iu: 0.00E+00 rsn:   0
  1 2r: 3.53E-15 2x: 1.00E+01 2u: 1.04E-15 ir: 9.44E-16 iu: 3.16E-16 rsn: stol

 Step   1882 Time=  9.85890E+00 Dt=  5.26933E-03 [d] conv_reason: 4
  newton =   1 [    1986] linear =     1 [      1986] cuts =  0 [   0]
  --> SNES Linear/Non-Linear Iterations = 1 / 1
  --> SNES Residual: 0.352911E-14 0.352911E-14 0.943690E-15
  --> max change:  dcmx=   2.2204E-16  dc/dt=   4.8772E-19 [mol/s]
 Maximum Pore Velocity:   7.5911E+01 [m/d]
 CFL Limiting ( 1.0):   1.0539E-02 ->   5.2693E-03 [d]

== REACTIVE TRANSPORT ==========================================================
  0 2r: 4.47E-15 2x: 0.00E+00 2u: 0.00E+00 ir: 1.36E-15 iu: 0.00E+00 rsn:   0
  1 2r: 3.26E-15 2x: 1.00E+01 2u: 9.68E-16 ir: 9.71E-16 iu: 3.09E-16 rsn: stol

 Step   1883 Time=  9.86417E+00 Dt=  5.26933E-03 [d] conv_reason: 4
  newton =   1 [    1987] linear =     1 [      1987] cuts =  0 [   0]
  --> SNES Linear/Non-Linear Iterations = 1 / 1
  --> SNES Residual: 0.326279E-14 0.326279E-14 0.971445E-15
  --> max change:  dcmx=   2.2204E-16  dc/dt=   4.8772E-19 [mol/s]
 Maximum Pore Velocity:   7.5911E+01 [m/d]
 CFL Limiting ( 1.0):   1.0539E-02 ->   5.2693E-03 [d]

== REACTIVE TRANSPORT ==========================================================
  0 2r: 4.56E-15 2x: 0.00E+00 2u: 0.00E+00 ir: 1.42E-15 iu: 0.00E+00 rsn:   0
  1 2r: 3.35E-15 2x: 1.00E+01 2u: 1.11E-15 ir: 9.44E-16 iu: 3.62E-16 rsn: stol

 Step   1884 Time=  9.86944E+00 Dt=  5.26933E-03 [d] conv_reason: 4
  newton =   1 [    1988] linear =     1 [      1988] cuts =  0 [   0]
  --> SNES Linear/Non-Linear Iterations = 1 / 1
  --> SNES Residual: 0.334947E-14 0.334947E-14 0.943690E-15
  --> max change:  dcmx=   4.4409E-16  dc/dt=   9.7544E-19 [mol/s]
 Maximum Pore Velocity:   7.5911E+01 [m/d]
 CFL Limiting ( 1.0):   1.0539E-02 ->   5.2693E-03 [d]

== REACTIVE TRANSPORT ==========================================================
  0 2r: 4.84E-15 2x: 0.00E+00 2u: 0.00E+00 ir: 1.36E-15 iu: 0.00E+00 rsn:   0
  1 2r: 3.88E-15 2x: 1.00E+01 2u: 9.76E-16 ir: 9.44E-16 iu: 2.68E-16 rsn: stol

 Step   1885 Time=  9.87471E+00 Dt=  5.26933E-03 [d] conv_reason: 4
  newton =   1 [    1989] linear =     1 [      1989] cuts =  0 [   0]
  --> SNES Linear/Non-Linear Iterations = 1 / 1
  --> SNES Residual: 0.387923E-14 0.387923E-14 0.943690E-15
  --> max change:  dcmx=   2.2204E-16  dc/dt=   4.8772E-19 [mol/s]
 Maximum Pore Velocity:   7.5911E+01 [m/d]
 CFL Limiting ( 1.0):   1.0539E-02 ->   5.2693E-03 [d]

== REACTIVE TRANSPORT ==========================================================
  0 2r: 4.75E-15 2x: 0.00E+00 2u: 0.00E+00 ir: 1.83E-15 iu: 0.00E+00 rsn:   0
  1 2r: 3.16E-15 2x: 1.00E+01 2u: 1.07E-15 ir: 9.44E-16 iu: 3.36E-16 rsn: stol

 Step   1886 Time=  9.87998E+00 Dt=  5.26933E-03 [d] conv_reason: 4
  newton =   1 [    1990] linear =     1 [      1990] cuts =  0 [   0]
  --> SNES Linear/Non-Linear Iterations = 1 / 1
  --> SNES Residual: 0.315816E-14 0.315816E-14 0.943690E-15
  --> max change:  dcmx=   4.4409E-16  dc/dt=   9.7544E-19 [mol/s]
 Maximum Pore Velocity:   7.5911E+01 [m/d]
 CFL Limiting ( 1.0):   1.0539E-02 ->   5.2693E-03 [d]

== REACTIVE TRANSPORT ==========================================================
  0 2r: 4.71E-15 2x: 0.00E+00 2u: 0.00E+00 ir: 1.36E-15 iu: 0.00E+00 rsn:   0
  1 2r: 3.24E-15 2x: 1.00E+01 2u: 9.68E-16 ir: 9.71E-16 iu: 2.74E-16 rsn: stol

 Step   1887 Time=  9.88525E+00 Dt=  5.26933E-03 [d] conv_reason: 4
  newton =   1 [    1991] linear =     1 [      1991] cuts =  0 [   0]
  --> SNES Linear/Non-Linear Iterations = 1 / 1
  --> SNES Residual: 0.323707E-14 0.323707E-14 0.971445E-15
  --> max change:  dcmx=   2.2204E-16  dc/dt=   4.8772E-19 [mol/s]
 Maximum Pore Velocity:   7.5911E+01 [m/d]
 CFL Limiting ( 1.0):   1.0539E-02 ->   5.2693E-03 [d]

== REACTIVE TRANSPORT ==========================================================
  0 2r: 3.77E-15 2x: 0.00E+00 2u: 0.00E+00 ir: 1.36E-15 iu: 0.00E+00 rsn:   0
  1 2r: 3.34E-15 2x: 1.00E+01 2u: 9.00E-16 ir: 9.44E-16 iu: 3.08E-16 rsn: stol

 Step   1888 Time=  9.89052E+00 Dt=  5.26933E-03 [d] conv_reason: 4
  newton =   1 [    1992] linear =     1 [      1992] cuts =  0 [   0]
  --> SNES Linear/Non-Linear Iterations = 1 / 1
  --> SNES Residual: 0.334060E-14 0.334060E-14 0.943690E-15
  --> max change:  dcmx=   2.2204E-16  dc/dt=   4.8772E-19 [mol/s]
 Maximum Pore Velocity:   7.5911E+01 [m/d]
 CFL Limiting ( 1.0):   1.0539E-02 ->   5.2693E-03 [d]

== REACTIVE TRANSPORT ==========================================================
  0 2r: 3.45E-15 2x: 0.00E+00 2u: 0.00E+00 ir: 9.16E-16 iu: 0.00E+00 rsn:   0
  1 2r: 3.59E-15 2x: 1.00E+01 2u: 8.16E-16 ir: 9.71E-16 iu: 2.52E-16 rsn: stol

 Step   1889 Time=  9.89579E+00 Dt=  5.26933E-03 [d] conv_reason: 4
  newton =   1 [    1993] linear =     1 [      1993] cuts =  0 [   0]
  --> SNES Linear/Non-Linear Iterations = 1 / 1
  --> SNES Residual: 0.359368E-14 0.359368E-14 0.971445E-15
  --> max change:  dcmx=   2.2204E-16  dc/dt=   4.8772E-19 [mol/s]
 Maximum Pore Velocity:   7.5911E+01 [m/d]
 CFL Limiting ( 1.0):   1.0539E-02 ->   5.2693E-03 [d]

== REACTIVE TRANSPORT ==========================================================
  0 2r: 3.94E-15 2x: 0.00E+00 2u: 0.00E+00 ir: 1.33E-15 iu: 0.00E+00 rsn:   0
  1 2r: 3.12E-15 2x: 1.00E+01 2u: 8.66E-16 ir: 9.44E-16 iu: 3.44E-16 rsn: stol

 Step   1890 Time=  9.90106E+00 Dt=  5.26933E-03 [d] conv_reason: 4
  newton =   1 [    1994] linear =     1 [      1994] cuts =  0 [   0]
  --> SNES Linear/Non-Linear Iterations = 1 / 1
  --> SNES Residual: 0.311654E-14 0.311654E-14 0.943690E-15
  --> max change:  dcmx=   4.4409E-16  dc/dt=   9.7544E-19 [mol/s]
 Maximum Pore Velocity:   7.5911E+01 [m/d]
 CFL Limiting ( 1.0):   1.0539E-02 ->   5.2693E-03 [d]

== REACTIVE TRANSPORT ==========================================================
  0 2r: 3.81E-15 2x: 0.00E+00 2u: 0.00E+00 ir: 1.36E-15 iu: 0.00E+00 rsn:   0
  1 2r: 3.16E-15 2x: 1.00E+01 2u: 8.69E-16 ir: 1.39E-15 iu: 2.81E-16 rsn: stol

 Step   1891 Time=  9.90633E+00 Dt=  5.26933E-03 [d] conv_reason: 4
  newton =   1 [    1995] linear =     1 [      1995] cuts =  0 [   0]
  --> SNES Linear/Non-Linear Iterations = 1 / 1
  --> SNES Residual: 0.315670E-14 0.315670E-14 0.138778E-14
  --> max change:  dcmx=   2.2204E-16  dc/dt=   4.8772E-19 [mol/s]
 Maximum Pore Velocity:   7.5911E+01 [m/d]
 CFL Limiting ( 1.0):   1.0539E-02 ->   5.2693E-03 [d]

== REACTIVE TRANSPORT ==========================================================
  0 2r: 3.74E-15 2x: 0.00E+00 2u: 0.00E+00 ir: 1.36E-15 iu: 0.00E+00 rsn:   0
  1 2r: 3.61E-15 2x: 1.00E+01 2u: 8.06E-16 ir: 9.44E-16 iu: 2.48E-16 rsn: stol

 Step   1892 Time=  9.91159E+00 Dt=  5.26933E-03 [d] conv_reason: 4
  newton =   1 [    1996] linear =     1 [      1996] cuts =  0 [   0]
  --> SNES Linear/Non-Linear Iterations = 1 / 1
  --> SNES Residual: 0.360726E-14 0.360726E-14 0.943690E-15
  --> max change:  dcmx=   2.2204E-16  dc/dt=   4.8772E-19 [mol/s]
 Maximum Pore Velocity:   7.5911E+01 [m/d]
 CFL Limiting ( 1.0):   1.0539E-02 ->   5.2693E-03 [d]

== REACTIVE TRANSPORT ==========================================================
  0 2r: 4.10E-15 2x: 0.00E+00 2u: 0.00E+00 ir: 1.36E-15 iu: 0.00E+00 rsn:   0
  1 2r: 3.38E-15 2x: 1.00E+01 2u: 9.09E-16 ir: 9.71E-16 iu: 2.59E-16 rsn: stol

 Step   1893 Time=  9.91686E+00 Dt=  5.26933E-03 [d] conv_reason: 4
  newton =   1 [    1997] linear =     1 [      1997] cuts =  0 [   0]
  --> SNES Linear/Non-Linear Iterations = 1 / 1
  --> SNES Residual: 0.338015E-14 0.338015E-14 0.971445E-15
  --> max change:  dcmx=   2.2204E-16  dc/dt=   4.8772E-19 [mol/s]
 Maximum Pore Velocity:   7.5911E+01 [m/d]
 CFL Limiting ( 1.0):   1.0539E-02 ->   5.2693E-03 [d]

== REACTIVE TRANSPORT ==========================================================
  0 2r: 4.77E-15 2x: 0.00E+00 2u: 0.00E+00 ir: 1.39E-15 iu: 0.00E+00 rsn:   0
  1 2r: 3.89E-15 2x: 1.00E+01 2u: 1.07E-15 ir: 9.44E-16 iu: 2.87E-16 rsn: stol

 Step   1894 Time=  9.92213E+00 Dt=  5.26933E-03 [d] conv_reason: 4
  newton =   1 [    1998] linear =     1 [      1998] cuts =  0 [   0]
  --> SNES Linear/Non-Linear Iterations = 1 / 1
  --> SNES Residual: 0.388865E-14 0.388865E-14 0.943690E-15
  --> max change:  dcmx=   2.2204E-16  dc/dt=   4.8772E-19 [mol/s]
 Maximum Pore Velocity:   7.5911E+01 [m/d]
 CFL Limiting ( 1.0):   1.0539E-02 ->   5.2693E-03 [d]

== REACTIVE TRANSPORT ==========================================================
  0 2r: 4.92E-15 2x: 0.00E+00 2u: 0.00E+00 ir: 1.80E-15 iu: 0.00E+00 rsn:   0
  1 2r: 3.55E-15 2x: 1.00E+01 2u: 9.24E-16 ir: 1.39E-15 iu: 3.24E-16 rsn: stol

 Step   1895 Time=  9.92740E+00 Dt=  5.26933E-03 [d] conv_reason: 4
  newton =   1 [    1999] linear =     1 [      1999] cuts =  0 [   0]
  --> SNES Linear/Non-Linear Iterations = 1 / 1
  --> SNES Residual: 0.355185E-14 0.355185E-14 0.138778E-14
  --> max change:  dcmx=   2.2204E-16  dc/dt=   4.8772E-19 [mol/s]
 Maximum Pore Velocity:   7.5911E+01 [m/d]
 CFL Limiting ( 1.0):   1.0539E-02 ->   5.2693E-03 [d]

== REACTIVE TRANSPORT ==========================================================
  0 2r: 4.21E-15 2x: 0.00E+00 2u: 0.00E+00 ir: 1.83E-15 iu: 0.00E+00 rsn:   0
  1 2r: 3.17E-15 2x: 1.00E+01 2u: 8.99E-16 ir: 9.71E-16 iu: 3.42E-16 rsn: stol

 Step   1896 Time=  9.93267E+00 Dt=  5.26933E-03 [d] conv_reason: 4
  newton =   1 [    2000] linear =     1 [      2000] cuts =  0 [   0]
  --> SNES Linear/Non-Linear Iterations = 1 / 1
  --> SNES Residual: 0.317410E-14 0.317410E-14 0.971445E-15
  --> max change:  dcmx=   4.4409E-16  dc/dt=   9.7544E-19 [mol/s]
 Maximum Pore Velocity:   7.5911E+01 [m/d]
 CFL Limiting ( 1.0):   1.0539E-02 ->   5.2693E-03 [d]

== REACTIVE TRANSPORT ==========================================================
  0 2r: 3.96E-15 2x: 0.00E+00 2u: 0.00E+00 ir: 1.36E-15 iu: 0.00E+00 rsn:   0
  1 2r: 3.95E-15 2x: 1.00E+01 2u: 8.19E-16 ir: 9.71E-16 iu: 2.34E-16 rsn: stol

 Step   1897 Time=  9.93794E+00 Dt=  5.26933E-03 [d] conv_reason: 4
  newton =   1 [    2001] linear =     1 [      2001] cuts =  0 [   0]
  --> SNES Linear/Non-Linear Iterations = 1 / 1
  --> SNES Residual: 0.394988E-14 0.394988E-14 0.971445E-15
  --> max change:  dcmx=   2.2204E-16  dc/dt=   4.8772E-19 [mol/s]
 Maximum Pore Velocity:   7.5911E+01 [m/d]
 CFL Limiting ( 1.0):   1.0539E-02 ->   5.2693E-03 [d]

== REACTIVE TRANSPORT ==========================================================
  0 2r: 4.50E-15 2x: 0.00E+00 2u: 0.00E+00 ir: 1.36E-15 iu: 0.00E+00 rsn:   0
  1 2r: 3.45E-15 2x: 1.00E+01 2u: 1.03E-15 ir: 9.71E-16 iu: 3.20E-16 rsn: stol

 Step   1898 Time=  9.94321E+00 Dt=  5.26933E-03 [d] conv_reason: 4
  newton =   1 [    2002] linear =     1 [      2002] cuts =  0 [   0]
  --> SNES Linear/Non-Linear Iterations = 1 / 1
  --> SNES Residual: 0.345298E-14 0.345298E-14 0.971445E-15
  --> max change:  dcmx=   2.2204E-16  dc/dt=   4.8772E-19 [mol/s]
 Maximum Pore Velocity:   7.5911E+01 [m/d]
 CFL Limiting ( 1.0):   1.0539E-02 ->   5.2693E-03 [d]

== REACTIVE TRANSPORT ==========================================================
  0 2r: 3.74E-15 2x: 0.00E+00 2u: 0.00E+00 ir: 9.16E-16 iu: 0.00E+00 rsn:   0
  1 2r: 3.87E-15 2x: 1.00E+01 2u: 9.12E-16 ir: 1.39E-15 iu: 2.54E-16 rsn: stol

 Step   1899 Time=  9.94848E+00 Dt=  5.26933E-03 [d] conv_reason: 4
  newton =   1 [    2003] linear =     1 [      2003] cuts =  0 [   0]
  --> SNES Linear/Non-Linear Iterations = 1 / 1
  --> SNES Residual: 0.387456E-14 0.387456E-14 0.138778E-14
  --> max change:  dcmx=   2.2204E-16  dc/dt=   4.8772E-19 [mol/s]
 Maximum Pore Velocity:   7.5911E+01 [m/d]
 CFL Limiting ( 1.0):   1.0539E-02 ->   5.2693E-03 [d]

== REACTIVE TRANSPORT ==========================================================
  0 2r: 4.54E-15 2x: 0.00E+00 2u: 0.00E+00 ir: 1.33E-15 iu: 0.00E+00 rsn:   0
  1 2r: 4.04E-15 2x: 1.00E+01 2u: 8.83E-16 ir: 9.44E-16 iu: 2.63E-16 rsn: stol

 Step   1900 Time=  9.95375E+00 Dt=  5.26933E-03 [d] conv_reason: 4
  newton =   1 [    2004] linear =     1 [      2004] cuts =  0 [   0]
  --> SNES Linear/Non-Linear Iterations = 1 / 1
  --> SNES Residual: 0.404165E-14 0.404165E-14 0.943690E-15
  --> max change:  dcmx=   2.2204E-16  dc/dt=   4.8772E-19 [mol/s]
 Maximum Pore Velocity:   7.5911E+01 [m/d]
 CFL Limiting ( 1.0):   1.0539E-02 ->   5.2693E-03 [d]

== REACTIVE TRANSPORT ==========================================================
  0 2r: 4.65E-15 2x: 0.00E+00 2u: 0.00E+00 ir: 1.36E-15 iu: 0.00E+00 rsn:   0
  1 2r: 3.50E-15 2x: 1.00E+01 2u: 8.82E-16 ir: 1.36E-15 iu: 2.56E-16 rsn: stol

 Step   1901 Time=  9.95902E+00 Dt=  5.26933E-03 [d] conv_reason: 4
  newton =   1 [    2005] linear =     1 [      2005] cuts =  0 [   0]
  --> SNES Linear/Non-Linear Iterations = 1 / 1
  --> SNES Residual: 0.349511E-14 0.349511E-14 0.136002E-14
  --> max change:  dcmx=   2.2204E-16  dc/dt=   4.8772E-19 [mol/s]
 Maximum Pore Velocity:   7.5911E+01 [m/d]
 CFL Limiting ( 1.0):   1.0539E-02 ->   5.2693E-03 [d]

== REACTIVE TRANSPORT ==========================================================
  0 2r: 3.83E-15 2x: 0.00E+00 2u: 0.00E+00 ir: 1.33E-15 iu: 0.00E+00 rsn:   0
  1 2r: 3.30E-15 2x: 1.00E+01 2u: 8.54E-16 ir: 9.44E-16 iu: 3.12E-16 rsn: stol

 Step   1902 Time=  9.96429E+00 Dt=  5.26933E-03 [d] conv_reason: 4
  newton =   1 [    2006] linear =     1 [      2006] cuts =  0 [   0]
  --> SNES Linear/Non-Linear Iterations = 1 / 1
  --> SNES Residual: 0.330338E-14 0.330338E-14 0.943690E-15
  --> max change:  dcmx=   2.2204E-16  dc/dt=   4.8772E-19 [mol/s]
 Maximum Pore Velocity:   7.5911E+01 [m/d]
 CFL Limiting ( 1.0):   1.0539E-02 ->   5.2693E-03 [d]

== REACTIVE TRANSPORT ==========================================================
  0 2r: 3.51E-15 2x: 0.00E+00 2u: 0.00E+00 ir: 9.16E-16 iu: 0.00E+00 rsn:   0
  1 2r: 2.92E-15 2x: 1.00E+01 2u: 7.42E-16 ir: 9.44E-16 iu: 2.10E-16 rsn: stol

 Step   1903 Time=  9.96956E+00 Dt=  5.26933E-03 [d] conv_reason: 4
  newton =   1 [    2007] linear =     1 [      2007] cuts =  0 [   0]
  --> SNES Linear/Non-Linear Iterations = 1 / 1
  --> SNES Residual: 0.291896E-14 0.291896E-14 0.943690E-15
  --> max change:  dcmx=   2.2204E-16  dc/dt=   4.8772E-19 [mol/s]
 Maximum Pore Velocity:   7.5911E+01 [m/d]
 CFL Limiting ( 1.0):   1.0539E-02 ->   5.2693E-03 [d]

== REACTIVE TRANSPORT ==========================================================
  0 2r: 2.67E-15 2x: 0.00E+00 2u: 0.00E+00 ir: 8.88E-16 iu: 0.00E+00 rsn:   0
  1 2r: 2.97E-15 2x: 1.00E+01 2u: 7.23E-16 ir: 9.71E-16 iu: 2.90E-16 rsn: stol

 Step   1904 Time=  9.97483E+00 Dt=  5.26933E-03 [d] conv_reason: 4
  newton =   1 [    2008] linear =     1 [      2008] cuts =  0 [   0]
  --> SNES Linear/Non-Linear Iterations = 1 / 1
  --> SNES Residual: 0.297205E-14 0.297205E-14 0.971445E-15
  --> max change:  dcmx=   2.2204E-16  dc/dt=   4.8772E-19 [mol/s]
 Maximum Pore Velocity:   7.5911E+01 [m/d]
 CFL Limiting ( 1.0):   1.0539E-02 ->   5.2693E-03 [d]

== REACTIVE TRANSPORT ==========================================================
  0 2r: 3.08E-15 2x: 0.00E+00 2u: 0.00E+00 ir: 8.88E-16 iu: 0.00E+00 rsn:   0
  1 2r: 2.77E-15 2x: 1.00E+01 2u: 6.53E-16 ir: 9.71E-16 iu: 1.66E-16 rsn: stol

 Step   1905 Time=  9.98010E+00 Dt=  5.26933E-03 [d] conv_reason: 4
  newton =   1 [    2009] linear =     1 [      2009] cuts =  0 [   0]
  --> SNES Linear/Non-Linear Iterations = 1 / 1
  --> SNES Residual: 0.276610E-14 0.276610E-14 0.971445E-15
  --> max change:  dcmx=   2.2204E-16  dc/dt=   4.8772E-19 [mol/s]
 Maximum Pore Velocity:   7.5911E+01 [m/d]
 CFL Limiting ( 1.0):   1.0539E-02 ->   5.2693E-03 [d]

== REACTIVE TRANSPORT ==========================================================
  0 2r: 2.81E-15 2x: 0.00E+00 2u: 0.00E+00 ir: 9.16E-16 iu: 0.00E+00 rsn:   0
  1 2r: 3.05E-15 2x: 1.00E+01 2u: 7.31E-16 ir: 9.71E-16 iu: 3.10E-16 rsn: stol

 Step   1906 Time=  9.98537E+00 Dt=  5.26933E-03 [d] conv_reason: 4
  newton =   1 [    2010] linear =     1 [      2010] cuts =  0 [   0]
  --> SNES Linear/Non-Linear Iterations = 1 / 1
  --> SNES Residual: 0.305261E-14 0.305261E-14 0.971445E-15
  --> max change:  dcmx=   2.2204E-16  dc/dt=   4.8772E-19 [mol/s]
 Maximum Pore Velocity:   7.5911E+01 [m/d]
 CFL Limiting ( 1.0):   1.0539E-02 ->   5.2693E-03 [d]

== REACTIVE TRANSPORT ==========================================================
  0 2r: 2.95E-15 2x: 0.00E+00 2u: 0.00E+00 ir: 8.88E-16 iu: 0.00E+00 rsn:   0
  1 2r: 2.69E-15 2x: 1.00E+01 2u: 6.21E-16 ir: 9.71E-16 iu: 1.68E-16 rsn: stol

 Step   1907 Time=  9.99063E+00 Dt=  5.26933E-03 [d] conv_reason: 4
  newton =   1 [    2011] linear =     1 [      2011] cuts =  0 [   0]
  --> SNES Linear/Non-Linear Iterations = 1 / 1
  --> SNES Residual: 0.268857E-14 0.268857E-14 0.971445E-15
  --> max change:  dcmx=   2.2204E-16  dc/dt=   4.8772E-19 [mol/s]
 Maximum Pore Velocity:   7.5911E+01 [m/d]
 CFL Limiting ( 1.0):   1.0539E-02 ->   5.2693E-03 [d]

== REACTIVE TRANSPORT ==========================================================
  0 2r: 2.58E-15 2x: 0.00E+00 2u: 0.00E+00 ir: 8.88E-16 iu: 0.00E+00 rsn:   0
  1 2r: 3.05E-15 2x: 1.00E+01 2u: 6.99E-16 ir: 9.71E-16 iu: 3.10E-16 rsn: stol

 Step   1908 Time=  9.99590E+00 Dt=  5.26933E-03 [d] conv_reason: 4
  newton =   1 [    2012] linear =     1 [      2012] cuts =  0 [   0]
  --> SNES Linear/Non-Linear Iterations = 1 / 1
  --> SNES Residual: 0.305248E-14 0.305248E-14 0.971445E-15
  --> max change:  dcmx=   2.2204E-16  dc/dt=   4.8772E-19 [mol/s]
 Maximum Pore Velocity:   7.5911E+01 [m/d]
 CFL Limiting ( 1.0):   1.0539E-02 ->   5.2693E-03 [d]

== REACTIVE TRANSPORT ==========================================================
  0 2r: 2.95E-15 2x: 0.00E+00 2u: 0.00E+00 ir: 8.88E-16 iu: 0.00E+00 rsn:   0
  1 2r: 2.58E-15 2x: 1.00E+01 2u: 5.90E-16 ir: 9.99E-16 iu: 1.62E-16 rsn: stol

 Step   1909 Time=  1.00000E+01 Dt=  4.09607E-03 [d] conv_reason: 4
  newton =   1 [    2013] linear =     1 [      2013] cuts =  0 [   0]
  --> SNES Linear/Non-Linear Iterations = 1 / 1
  --> SNES Residual: 0.257574E-14 0.257574E-14 0.999201E-15
  --> max change:  dcmx=   2.2204E-16  dc/dt=   6.2742E-19 [mol/s]
 Maximum Pore Velocity:   7.5911E+01 [m/d]
 CFL Limiting ( 1.0):   8.1921E-03 ->   5.2693E-03 [d]

 --> appending to hdf5 output file: 2b-1-hw7-1D_solute.h5
      0.01 Seconds to write HDF5 file.
 --> write tecplot output file: 2b-1-hw7-1D_solute-010.tec
      0.01 Seconds to write to Tecplot file(s)

PMCSubsurfaceFlow
 Total Time: 3.7966E-02 seconds

 FLOW TS SNES steps = 25  newton = 26  linear = 26  cuts = 0
 FLOW TS SNES Wasted Linear Iterations = 0
 FLOW TS SNES Wasted Newton Iterations = 0
 FLOW TS SNES time = 0.0 seconds

PMCSubsurfaceTransport
 Total Time: 1.7313E+00 seconds

 TRAN TS SNES steps = 1909  newton = 2013  linear = 2013  cuts = 0
 TRAN TS SNES Wasted Linear Iterations = 0
 TRAN TS SNES Wasted Newton Iterations = 0
 TRAN TS SNES time = 1.4 seconds

 Wall Clock Time:  2.2526E+00 [sec]   3.7543E-02 [min]   6.2571E-04 [hr]
