
=================
  PFLOTRAN v6.0
=================

"grid_structured_type" set to default value.
pflotran card:: NUMERICAL_METHODS
pflotran card:: NUMERICAL_METHODS
pflotran card:: CHEMISTRY
pflotran card:: GRID
pflotran card:: FLUID_PROPERTY
"FLUID_PROPERTY,diffusion_coefficient units" set to default value.
pflotran card:: MATERIAL_PROPERTY
  Name :: soil1
pflotran card:: CHARACTERISTIC_CURVES
  Name :: default
 WARNING: Mualem-van Genuchten relative permeability function is being used without SMOOTH option.
pflotran card:: OUTPUT
"OUTPUT,SNAPSHOT_FILE,FORMAT,HDF5" set to default value.
pflotran card:: TIME
pflotran card:: REGION
all
pflotran card:: REGION
top
pflotran card:: REGION
bottom
pflotran card:: REGION
east
pflotran card:: REGION
west
pflotran card:: REGION
west_up
pflotran card:: REGION
lake
pflotran card:: FLOW_CONDITION
initial
pflotran card:: FLOW_CONDITION
west
pflotran card:: FLOW_CONDITION
east
pflotran card:: TRANSPORT_CONDITION
initial
pflotran card:: TRANSPORT_CONDITION
lake
pflotran card:: CONSTRAINT
initial
Constraint Species: Tracer
pflotran card:: CONSTRAINT
lake
Constraint Species: Tracer
pflotran card:: INITIAL_CONDITION
"Initial Condition name" set to default value.
pflotran card:: BOUNDARY_CONDITION
pflotran card:: BOUNDARY_CONDITION
pflotran card:: BOUNDARY_CONDITION
pflotran card:: STRATA
pflotran card:: END_SUBSURFACE
--------------------------------------------------------------------------------

     1  Primary Species

              Tracer              

     0  Secondary Complex Species



     0  Active Gas Species



     0  Passive Gas Species



     0  Reference Minerals



     0  Kinetic Mineral Reactions



     0  Ion Exchange Reactions

     0  Ion Exchange Cations
--------------------------------------------------------------------------------

Extent of Gridded Domain
 X: 0.000000E+00 - 1.000000E+02
 Y: 0.000000E+00 - 1.000000E+00
 Z: 0.000000E+00 - 1.000000E+01

Size of Gridded Domain
 Number of grid cells: 10000

Number of active grid cells: 10000
Number of inactive grid cells: 0

  Setting up TRAN Realization
  Finished setting up TRAN Realization

=+=+=+=+=+=+=+=+=+=+=+=+=+=+=+=+=+=+=+=+=+=+=+=+=+=+=+=+=+=+=+=+=+=+=+=+=+=+=+=+

  Initial Condition

--------------------------------------------------------------------------------
          Flow Condition:   initial
     Transport Condition:   initial
                  Region:   all
--------------------------------------------------------------------------------

  Flow Condition: initial
    Synchronize time with update: no
    Time units: yr
    Length units: m
      Datum:
        Dataset: Unnamed Ascii Dataset
          Type: dataset_ascii_type
          Transient: no
          Array Rank:  3

    Sub Condition: pressure
      Type: hydrostatic
      Gradient:
        Dataset: Unnamed Ascii Dataset
          Type: dataset_ascii_type
          Transient: no
          Array Rank:  3
      Data:
        Dataset: Unnamed Ascii Dataset
          Type: dataset_ascii_type
          Transient: no
          Array Rank:  1

--------------------------------------------------------------------------------

  Transport Condition: initial

  Constraint: initial

  species       molality
  Tracer        1.0028E-10


--------------------------------------------------------------------------------

=+=+=+=+=+=+=+=+=+=+=+=+=+=+=+=+=+=+=+=+=+=+=+=+=+=+=+=+=+=+=+=+=+=+=+=+=+=+=+=+

  Boundary Condition

--------------------------------------------------------------------------------
          Flow Condition:   west
     Transport Condition:   initial
                  Region:   west_up
--------------------------------------------------------------------------------

  Flow Condition: west
    Synchronize time with update: no
    Time units: yr
    Length units: m
      Datum:
        Dataset: Unnamed Ascii Dataset
          Type: dataset_ascii_type
          Transient: no
          Array Rank:  3

    Sub Condition: pressure
      Type: hydrostatic
      Gradient:
      Data:
        Dataset: Unnamed Ascii Dataset
          Type: dataset_ascii_type
          Transient: no
          Array Rank:  1

--------------------------------------------------------------------------------

  Transport Condition: initial

  Constraint: initial

  species       molality
  Tracer        1.0028E-10


--------------------------------------------------------------------------------

=+=+=+=+=+=+=+=+=+=+=+=+=+=+=+=+=+=+=+=+=+=+=+=+=+=+=+=+=+=+=+=+=+=+=+=+=+=+=+=+

  Boundary Condition

--------------------------------------------------------------------------------
          Flow Condition:   west
     Transport Condition:   lake
                  Region:   lake
--------------------------------------------------------------------------------

  Flow Condition: west
    Synchronize time with update: no
    Time units: yr
    Length units: m
      Datum:
        Dataset: Unnamed Ascii Dataset
          Type: dataset_ascii_type
          Transient: no
          Array Rank:  3

    Sub Condition: pressure
      Type: hydrostatic
      Gradient:
      Data:
        Dataset: Unnamed Ascii Dataset
          Type: dataset_ascii_type
          Transient: no
          Array Rank:  1

--------------------------------------------------------------------------------

  Transport Condition: lake

  Constraint: initial

  species       molality
  Tracer        1.0028E-10


--------------------------------------------------------------------------------

=+=+=+=+=+=+=+=+=+=+=+=+=+=+=+=+=+=+=+=+=+=+=+=+=+=+=+=+=+=+=+=+=+=+=+=+=+=+=+=+

  Boundary Condition

--------------------------------------------------------------------------------
          Flow Condition:   east
     Transport Condition:   initial
                  Region:   east
--------------------------------------------------------------------------------

  Flow Condition: east
    Synchronize time with update: no
    Time units: yr
    Length units: m
      Datum:
        Dataset: Unnamed Ascii Dataset
          Type: dataset_ascii_type
          Filename: ./river_stage.txt
          Is transient?: yes
          Number of times:     25
          Is cyclic?: yes
          Buffer:
            Rank:  2
            Dims:    3  25
            Buffer Slice Size:   0
          Array Rank:  3

    Sub Condition: pressure
      Type: seepage
      Gradient:
      Data:
        Dataset: Unnamed Ascii Dataset
          Type: dataset_ascii_type
          Transient: no
          Array Rank:  1

--------------------------------------------------------------------------------

  Transport Condition: initial

  Constraint: initial

  species       molality
  Tracer        1.0028E-10


--------------------------------------------------------------------------------
Default HDF5 method is used in Initialization
  Beginning setup of FLOW SNES
 number of dofs =   1, number of phases =   1
 mode = Richards: p
  Finished setting up FLOW SNES
mode = Reactive Transport
  Beginning setup of TRAN SNES
  Finished setting up TRAN SNES

 Requested processors and decomposition =     1, npx,y,z=   -1  -1  -1
 Actual decomposition: npx,y,z=    1   1   1


FLOW Time Stepper SNES
      maximum number of steps: 999999
constant time steps threshold: 5
       maximum number of cuts: 16
             reduction factor: 5.000000E-01
        maximum growth factor: 2.000000E+00
                 acceleration: on
       acceleration threshold: 5
       number of ramp entries: 5
                ramp entry #1: 2.0000
                ramp entry #2: 2.0000
                ramp entry #3: 2.0000
                ramp entry #4: 2.0000
                ramp entry #5: 2.0000
                ramp entry #6: 1.8000
                ramp entry #7: 1.6000
                ramp entry #8: 1.4000
                ramp entry #9: 1.2000
               ramp entry #10: 1.0000
               ramp entry #11: 1.0000
               ramp entry #12: 1.0000
               ramp entry #13: 1.0000

FLOW Newton Solver
                         atol: 1.000000E-50
                         rtol: 1.000000E-08
                         stol: 1.000000E-08
                         dtol: 1.000000E+04
                      maxnorm: 1.000000E+20
                    inftolres: -9.990000E+02
                    inftolupd: 1.000000E+00
                 inftolrelupd: -9.990000E+02
                 inftolsclres: -9.990000E+02
                     max iter: 50
                     min iter: 1
                         maxf: 10000
                  matrix type: baij
         precond. matrix type: baij
               inexact newton: off
            print convergence: on
   print detailed convergence: off
          check infinity norm: on

FLOW Linear Solver
                       solver: bcgs
               preconditioner: ilu
                         atol: 1.000000E-50
                         rtol: 1.000000E-05
                         dtol: 1.000000E+04
            maximum iteration: 10000

TRAN Time Stepper SNES
      maximum number of steps: 999999
constant time steps threshold: 5
       maximum number of cuts: 16
             reduction factor: 5.000000E-01
        maximum growth factor: 2.000000E+00
                 acceleration: on
       acceleration threshold: 5
       number of ramp entries: 5
                ramp entry #1: 2.0000
                ramp entry #2: 2.0000
                ramp entry #3: 2.0000
                ramp entry #4: 2.0000
                ramp entry #5: 2.0000
                ramp entry #6: 1.8000
                ramp entry #7: 1.6000
                ramp entry #8: 1.4000
                ramp entry #9: 1.2000
               ramp entry #10: 1.0000
               ramp entry #11: 1.0000
               ramp entry #12: 1.0000
               ramp entry #13: 1.0000

TRAN Newton Solver
                         atol: 1.000000E-50
                         rtol: 1.000000E-08
                         stol: 1.000000E-08
                         dtol: 1.000000E+04
                      maxnorm: 1.000000E+20
                    inftolres: -9.990000E+02
                    inftolupd: -9.990000E+02
                 inftolrelupd: -9.990000E+02
                 inftolsclres: -9.990000E+02
                     max iter: 50
                     min iter: 1
                         maxf: 10000
                  matrix type: baij
         precond. matrix type: baij
               inexact newton: off
            print convergence: on
   print detailed convergence: off
          check infinity norm: on

TRAN Linear Solver
                       solver: bcgs
               preconditioner: ilu
                         atol: 1.000000E-50
                         rtol: 1.000000E-05
                         dtol: 1.000000E+04
            maximum iteration: 10000

 --> creating hdf5 output file: 2D_solute.h5
      0.07 Seconds to write HDF5 file.

 Finished Initialization


== RICHARDS FLOW ===============================================================
  0 2r: 2.09E-06 2x: 0.00E+00 2u: 0.00E+00 ir: 1.17E-06 iu: 0.00E+00 rsn:   0
  1 2r: 1.06E-07 2x: 7.75E+06 2u: 4.06E+01 ir: 6.70E-08 iu: 1.01E+01 rsn:   0
  2 2r: 1.08E-12 2x: 7.75E+06 2u: 7.76E-01 ir: 6.51E-13 iu: 5.39E-02 rsn: itol_upd

 Step      1 Time=  1.14155E-05 Dt=  1.14155E-05 [y] conv_reason: 11
  newton =   2 [       2] linear =    27 [        27] cuts =  0 [   0]
  --> SNES Linear/Non-Linear Iterations = 27 / 2
  --> SNES Residual: 0.108363E-11 0.108363E-15 0.650674E-12
  --> max change: dpmx=   1.0185E+01

== REACTIVE TRANSPORT ==========================================================
  0 2r: 8.91E-21 2x: 0.00E+00 2u: 0.00E+00 ir: 5.97E-22 iu: 0.00E+00 rsn:   0
  1 2r: 4.76E-26 2x: 1.00E-08 2u: 1.29E-19 ir: 2.42E-27 iu: 1.33E-20 rsn: stol

 Step      1 Time=  1.14155E-05 Dt=  1.14155E-05 [y] conv_reason: 4
  newton =   1 [       1] linear =     1 [         1] cuts =  0 [   0]
  --> SNES Linear/Non-Linear Iterations = 1 / 1
  --> SNES Residual: 0.475506E-25 0.475506E-25 0.242338E-26
  --> max change:  dcmx=   1.3263E-20  dc/dt=   3.6841E-23 [mol/s]
 Maximum Pore Velocity:   2.7713E+01 [m/y]

== RICHARDS FLOW ===============================================================
  0 2r: 1.63E-06 2x: 0.00E+00 2u: 0.00E+00 ir: 6.93E-07 iu: 0.00E+00 rsn:   0
  1 2r: 1.14E-07 2x: 7.75E+06 2u: 4.95E+01 ir: 8.12E-08 iu: 9.49E+00 rsn:   0
  2 2r: 1.67E-12 2x: 7.75E+06 2u: 2.00E-01 ir: 1.26E-12 iu: 8.30E-02 rsn: itol_upd

 Step      2 Time=  3.42466E-05 Dt=  2.28311E-05 [y] conv_reason: 11
  newton =   2 [       4] linear =    25 [        52] cuts =  0 [   0]
  --> SNES Linear/Non-Linear Iterations = 25 / 2
  --> SNES Residual: 0.167488E-11 0.167488E-15 0.125816E-11
  --> max change: dpmx=   9.5332E+00

== REACTIVE TRANSPORT ==========================================================
  0 2r: 1.02E-20 2x: 0.00E+00 2u: 0.00E+00 ir: 3.75E-21 iu: 0.00E+00 rsn:   0
  1 2r: 2.47E-26 2x: 1.00E-08 2u: 2.85E-19 ir: 1.21E-27 iu: 9.68E-20 rsn: stol

 Step      2 Time=  3.42466E-05 Dt=  2.28311E-05 [y] conv_reason: 4
  newton =   1 [       2] linear =     1 [         2] cuts =  0 [   0]
  --> SNES Linear/Non-Linear Iterations = 1 / 1
  --> SNES Residual: 0.246518E-25 0.246518E-25 0.121169E-26
  --> max change:  dcmx=   9.6850E-20  dc/dt=   1.3451E-22 [mol/s]
 Maximum Pore Velocity:   2.7716E+01 [m/y]

== RICHARDS FLOW ===============================================================
  0 2r: 1.38E-06 2x: 0.00E+00 2u: 0.00E+00 ir: 5.12E-07 iu: 0.00E+00 rsn:   0
  1 2r: 5.65E-08 2x: 7.75E+06 2u: 7.32E+01 ir: 4.01E-08 iu: 1.16E+01 rsn:   0
  2 2r: 6.61E-13 2x: 7.75E+06 2u: 1.11E-01 ir: 4.91E-13 iu: 5.14E-02 rsn: itol_upd

 Step      3 Time=  7.99087E-05 Dt=  4.56621E-05 [y] conv_reason: 11
  newton =   2 [       6] linear =    28 [        80] cuts =  0 [   0]
  --> SNES Linear/Non-Linear Iterations = 28 / 2
  --> SNES Residual: 0.661481E-12 0.661481E-16 0.490997E-12
  --> max change: dpmx=   1.1610E+01

== REACTIVE TRANSPORT ==========================================================
  0 2r: 1.03E-20 2x: 0.00E+00 2u: 0.00E+00 ir: 2.59E-21 iu: 0.00E+00 rsn:   0
  1 2r: 2.32E-26 2x: 1.00E-08 2u: 5.59E-19 ir: 3.84E-27 iu: 1.19E-19 rsn: stol

 Step      3 Time=  7.99087E-05 Dt=  4.56621E-05 [y] conv_reason: 4
  newton =   1 [       3] linear =     1 [         3] cuts =  0 [   0]
  --> SNES Linear/Non-Linear Iterations = 1 / 1
  --> SNES Residual: 0.231630E-25 0.231630E-25 0.383702E-26
  --> max change:  dcmx=   1.1901E-19  dc/dt=   8.2647E-23 [mol/s]
 Maximum Pore Velocity:   2.7719E+01 [m/y]

== RICHARDS FLOW ===============================================================
  0 2r: 1.16E-06 2x: 0.00E+00 2u: 0.00E+00 ir: 3.63E-07 iu: 0.00E+00 rsn:   0
  1 2r: 3.44E-08 2x: 7.75E+06 2u: 1.16E+02 ir: 2.43E-08 iu: 1.50E+01 rsn:   0
  2 2r: 3.77E-13 2x: 7.75E+06 2u: 7.98E-02 ir: 2.73E-13 iu: 4.40E-02 rsn: itol_upd

 Step      4 Time=  1.71233E-04 Dt=  9.13242E-05 [y] conv_reason: 11
  newton =   2 [       8] linear =    30 [       110] cuts =  0 [   0]
  --> SNES Linear/Non-Linear Iterations = 30 / 2
  --> SNES Residual: 0.377157E-12 0.377157E-16 0.272962E-12
  --> max change: dpmx=   1.4988E+01

== REACTIVE TRANSPORT ==========================================================
  0 2r: 1.15E-20 2x: 0.00E+00 2u: 0.00E+00 ir: 3.55E-21 iu: 0.00E+00 rsn:   0
  1 2r: 6.95E-27 2x: 1.00E-08 2u: 1.14E-18 ir: 4.04E-28 iu: 2.53E-19 rsn: stol

 Step      4 Time=  1.71233E-04 Dt=  9.13242E-05 [y] conv_reason: 4
  newton =   1 [       4] linear =     2 [         5] cuts =  0 [   0]
  --> SNES Linear/Non-Linear Iterations = 2 / 1
  --> SNES Residual: 0.695147E-26 0.695147E-26 0.403897E-27
  --> max change:  dcmx=   2.5259E-19  dc/dt=   8.7705E-23 [mol/s]
 Maximum Pore Velocity:   2.7720E+01 [m/y]

== RICHARDS FLOW ===============================================================
  0 2r: 9.99E-07 2x: 0.00E+00 2u: 0.00E+00 ir: 2.47E-07 iu: 0.00E+00 rsn:   0
  1 2r: 3.36E-08 2x: 7.75E+06 2u: 1.93E+02 ir: 2.34E-08 iu: 1.97E+01 rsn:   0
  2 2r: 4.60E-13 2x: 7.75E+06 2u: 1.03E-01 ir: 3.50E-13 iu: 5.64E-02 rsn: itol_upd

 Step      5 Time=  3.53881E-04 Dt=  1.82648E-04 [y] conv_reason: 11
  newton =   2 [      10] linear =    34 [       144] cuts =  0 [   0]
  --> SNES Linear/Non-Linear Iterations = 34 / 2
  --> SNES Residual: 0.459606E-12 0.459606E-16 0.350234E-12
  --> max change: dpmx=   1.9690E+01

== REACTIVE TRANSPORT ==========================================================
  0 2r: 1.32E-20 2x: 0.00E+00 2u: 0.00E+00 ir: 4.12E-21 iu: 0.00E+00 rsn:   0
  1 2r: 4.24E-27 2x: 1.00E-08 2u: 2.30E-18 ir: 2.52E-28 iu: 4.30E-19 rsn: stol

 Step      5 Time=  3.53881E-04 Dt=  1.82648E-04 [y] conv_reason: 4
  newton =   1 [       5] linear =     2 [         7] cuts =  0 [   0]
  --> SNES Linear/Non-Linear Iterations = 2 / 1
  --> SNES Residual: 0.423795E-26 0.423795E-26 0.252435E-27
  --> max change:  dcmx=   4.2990E-19  dc/dt=   7.4636E-23 [mol/s]
 Maximum Pore Velocity:   2.7721E+01 [m/y]

== RICHARDS FLOW ===============================================================
  0 2r: 9.37E-07 2x: 0.00E+00 2u: 0.00E+00 ir: 1.61E-07 iu: 0.00E+00 rsn:   0
  1 2r: 3.68E-08 2x: 7.75E+06 2u: 3.30E+02 ir: 2.57E-08 iu: 2.63E+01 rsn:   0
  2 2r: 7.58E-13 2x: 7.75E+06 2u: 1.64E-01 ir: 5.86E-13 iu: 8.39E-02 rsn: itol_upd

 Step      6 Time=  7.19178E-04 Dt=  3.65297E-04 [y] conv_reason: 11
  newton =   2 [      12] linear =    38 [       182] cuts =  0 [   0]
  --> SNES Linear/Non-Linear Iterations = 38 / 2
  --> SNES Residual: 0.758455E-12 0.758455E-16 0.586290E-12
  --> max change: dpmx=   2.6258E+01

== REACTIVE TRANSPORT ==========================================================
  0 2r: 1.58E-20 2x: 0.00E+00 2u: 0.00E+00 ir: 4.58E-21 iu: 0.00E+00 rsn:   0
  1 2r: 1.04E-26 2x: 1.00E-08 2u: 4.60E-18 ir: 1.26E-27 iu: 6.81E-19 rsn: stol

 Step      6 Time=  7.19178E-04 Dt=  3.65297E-04 [y] conv_reason: 4
  newton =   1 [       6] linear =     2 [         9] cuts =  0 [   0]
  --> SNES Linear/Non-Linear Iterations = 2 / 1
  --> SNES Residual: 0.103824E-25 0.103824E-25 0.126218E-26
  --> max change:  dcmx=   6.8056E-19  dc/dt=   5.9076E-23 [mol/s]
 Maximum Pore Velocity:   2.7722E+01 [m/y]

== RICHARDS FLOW ===============================================================
  0 2r: 1.12E-06 2x: 0.00E+00 2u: 0.00E+00 ir: 2.70E-07 iu: 0.00E+00 rsn:   0
  1 2r: 3.26E-08 2x: 7.75E+06 2u: 5.86E+02 ir: 2.31E-08 iu: 3.61E+01 rsn:   0
  2 2r: 8.15E-13 2x: 7.75E+06 2u: 2.65E-01 ir: 6.30E-13 iu: 9.98E-02 rsn: itol_upd

 Step      7 Time=  1.44977E-03 Dt=  7.30594E-04 [y] conv_reason: 11
  newton =   2 [      14] linear =    45 [       227] cuts =  0 [   0]
  --> SNES Linear/Non-Linear Iterations = 45 / 2
  --> SNES Residual: 0.814712E-12 0.814712E-16 0.630213E-12
  --> max change: dpmx=   3.6078E+01

== REACTIVE TRANSPORT ==========================================================
  0 2r: 2.09E-20 2x: 0.00E+00 2u: 0.00E+00 ir: 5.99E-21 iu: 0.00E+00 rsn:   0
  1 2r: 3.56E-27 2x: 1.00E-08 2u: 9.13E-18 ir: 4.17E-28 iu: 1.12E-18 rsn: stol

 Step      7 Time=  1.44977E-03 Dt=  7.30594E-04 [y] conv_reason: 4
  newton =   1 [       7] linear =     3 [        12] cuts =  0 [   0]
  --> SNES Linear/Non-Linear Iterations = 3 / 1
  --> SNES Residual: 0.355979E-26 0.355979E-26 0.416519E-27
  --> max change:  dcmx=   1.1222E-18  dc/dt=   4.8704E-23 [mol/s]
 Maximum Pore Velocity:   2.7723E+01 [m/y]

== RICHARDS FLOW ===============================================================
  0 2r: 1.83E-06 2x: 0.00E+00 2u: 0.00E+00 ir: 5.40E-07 iu: 0.00E+00 rsn:   0
  1 2r: 2.06E-08 2x: 7.75E+06 2u: 1.07E+03 ir: 1.23E-08 iu: 5.28E+01 rsn:   0
  2 2r: 2.43E-13 2x: 7.75E+06 2u: 5.58E-01 ir: 1.91E-13 iu: 7.98E-02 rsn: itol_upd

 Step      8 Time=  2.91096E-03 Dt=  1.46119E-03 [y] conv_reason: 11
  newton =   2 [      16] linear =    54 [       281] cuts =  0 [   0]
  --> SNES Linear/Non-Linear Iterations = 54 / 2
  --> SNES Residual: 0.243279E-12 0.243279E-16 0.190784E-12
  --> max change: dpmx=   5.2748E+01

== REACTIVE TRANSPORT ==========================================================
  0 2r: 3.16E-20 2x: 0.00E+00 2u: 0.00E+00 ir: 9.55E-21 iu: 0.00E+00 rsn:   0
  1 2r: 6.38E-27 2x: 1.00E-08 2u: 1.81E-17 ir: 5.68E-28 iu: 1.88E-18 rsn: stol

 Step      8 Time=  2.91096E-03 Dt=  1.46119E-03 [y] conv_reason: 4
  newton =   1 [       8] linear =     4 [        16] cuts =  0 [   0]
  --> SNES Linear/Non-Linear Iterations = 4 / 1
  --> SNES Residual: 0.637712E-26 0.637712E-26 0.567980E-27
  --> max change:  dcmx=   1.8847E-18  dc/dt=   4.0901E-23 [mol/s]
 Maximum Pore Velocity:   2.7723E+01 [m/y]

== RICHARDS FLOW ===============================================================
  0 2r: 3.47E-06 2x: 0.00E+00 2u: 0.00E+00 ir: 1.08E-06 iu: 0.00E+00 rsn:   0
  1 2r: 1.24E-08 2x: 7.76E+06 2u: 2.03E+03 ir: 4.33E-09 iu: 8.63E+01 rsn:   0
  2 2r: 7.31E-14 2x: 7.76E+06 2u: 1.58E+00 ir: 1.83E-14 iu: 1.81E-01 rsn: itol_upd

 Step      9 Time=  5.83333E-03 Dt=  2.92237E-03 [y] conv_reason: 11
  newton =   2 [      18] linear =    68 [       349] cuts =  0 [   0]
  --> SNES Linear/Non-Linear Iterations = 68 / 2
  --> SNES Residual: 0.730833E-13 0.730833E-17 0.182821E-13
  --> max change: dpmx=   8.6094E+01

== REACTIVE TRANSPORT ==========================================================
  0 2r: 5.34E-20 2x: 0.00E+00 2u: 0.00E+00 ir: 1.70E-20 iu: 0.00E+00 rsn:   0
  1 2r: 2.40E-26 2x: 1.00E-08 2u: 3.59E-17 ir: 1.99E-27 iu: 3.15E-18 rsn: stol

 Step      9 Time=  5.83333E-03 Dt=  2.92237E-03 [y] conv_reason: 4
  newton =   1 [       9] linear =     5 [        21] cuts =  0 [   0]
  --> SNES Linear/Non-Linear Iterations = 5 / 1
  --> SNES Residual: 0.240168E-25 0.240168E-25 0.198793E-26
  --> max change:  dcmx=   3.1498E-18  dc/dt=   3.4178E-23 [mol/s]
 Maximum Pore Velocity:   2.7722E+01 [m/y]

== RICHARDS FLOW ===============================================================
  0 2r: 6.86E-06 2x: 0.00E+00 2u: 0.00E+00 ir: 2.16E-06 iu: 0.00E+00 rsn:   0
  1 2r: 4.65E-08 2x: 7.76E+06 2u: 4.00E+03 ir: 3.29E-08 iu: 1.67E+02 rsn:   0
  2 2r: 4.01E-11 2x: 7.76E+06 2u: 6.43E+00 ir: 2.83E-11 iu: 3.82E-01 rsn: itol_upd

 Step     10 Time=  1.16781E-02 Dt=  5.84475E-03 [y] conv_reason: 11
  newton =   2 [      20] linear =    88 [       437] cuts =  0 [   0]
  --> SNES Linear/Non-Linear Iterations = 88 / 2
  --> SNES Residual: 0.400717E-10 0.400717E-14 0.283289E-10
  --> max change: dpmx=   1.6725E+02

== REACTIVE TRANSPORT ==========================================================
  0 2r: 1.18E-19 2x: 0.00E+00 2u: 0.00E+00 ir: 5.13E-20 iu: 0.00E+00 rsn:   0
  1 2r: 5.34E-26 2x: 1.00E-08 2u: 7.49E-17 ir: 3.86E-27 iu: 1.27E-17 rsn: stol

 Step     10 Time=  1.16781E-02 Dt=  5.84475E-03 [y] conv_reason: 4
  newton =   1 [      10] linear =     7 [        28] cuts =  0 [   0]
  --> SNES Linear/Non-Linear Iterations = 7 / 1
  --> SNES Residual: 0.534381E-25 0.534381E-25 0.385595E-26
  --> max change:  dcmx=   1.2662E-17  dc/dt=   6.8696E-23 [mol/s]
 Maximum Pore Velocity:   2.7716E+01 [m/y]

== RICHARDS FLOW ===============================================================
  0 2r: 1.39E-05 2x: 0.00E+00 2u: 0.00E+00 ir: 4.32E-06 iu: 0.00E+00 rsn:   0
  1 2r: 3.06E-07 2x: 7.77E+06 2u: 8.13E+03 ir: 2.13E-07 iu: 3.30E+02 rsn:   0
  2 2r: 3.92E-10 2x: 7.77E+06 2u: 2.00E+01 ir: 2.72E-10 iu: 1.26E+00 rsn:   0
  3 2r: 3.07E-16 2x: 7.77E+06 2u: 1.22E-02 ir: 1.69E-17 iu: 5.67E-04 rsn: itol_upd

 Step     11 Time=  2.33676E-02 Dt=  1.16895E-02 [y] conv_reason: 11
  newton =   3 [      23] linear =   128 [       565] cuts =  0 [   0]
  --> SNES Linear/Non-Linear Iterations = 128 / 3
  --> SNES Residual: 0.306842E-15 0.306842E-19 0.168746E-16
  --> max change: dpmx=   3.2982E+02

== REACTIVE TRANSPORT ==========================================================
  0 2r: 1.77E-19 2x: 0.00E+00 2u: 0.00E+00 ir: 5.68E-20 iu: 0.00E+00 rsn:   0
  1 2r: 2.06E-25 2x: 1.00E-08 2u: 1.50E-16 ir: 1.34E-26 iu: 1.10E-17 rsn:   0
  2 2r: 2.00E-27 2x: 1.00E-08 2u: 2.52E-21 ir: 1.48E-28 iu: 1.17E-22 rsn: stol

 Step     11 Time=  2.33676E-02 Dt=  1.16895E-02 [y] conv_reason: 4
  newton =   2 [      12] linear =    16 [        44] cuts =  0 [   0]
  --> SNES Linear/Non-Linear Iterations = 16 / 2
  --> SNES Residual: 0.199764E-26 0.199764E-26 0.147517E-27
  --> max change:  dcmx=   1.0982E-17  dc/dt=   2.9791E-23 [mol/s]
 Maximum Pore Velocity:   2.7665E+01 [m/y]
 CFL Limiting ( 1.0):   2.3379E-02 ->   1.8171E-02 [y]

== RICHARDS FLOW ===============================================================
  0 2r: 2.87E-05 2x: 0.00E+00 2u: 0.00E+00 ir: 8.65E-06 iu: 0.00E+00 rsn:   0
  1 2r: 2.78E-07 2x: 7.78E+06 2u: 1.75E+04 ir: 1.38E-07 iu: 6.79E+02 rsn:   0
  2 2r: 2.84E-10 2x: 7.78E+06 2u: 1.04E+02 ir: 1.98E-10 iu: 5.52E+00 rsn:   0
  3 2r: 6.12E-16 2x: 7.78E+06 2u: 6.50E-02 ir: 4.19E-17 iu: 1.56E-03 rsn: itol_upd

 Step     12 Time=  4.67466E-02 Dt=  2.33790E-02 [y] conv_reason: 11
  newton =   3 [      26] linear =   158 [       723] cuts =  0 [   0]
  --> SNES Linear/Non-Linear Iterations = 158 / 3
  --> SNES Residual: 0.611509E-15 0.611509E-19 0.418648E-16
  --> max change: dpmx=   6.7810E+02

== REACTIVE TRANSPORT ==========================================================
  0 2r: 2.25E-19 2x: 0.00E+00 2u: 0.00E+00 ir: 5.44E-20 iu: 0.00E+00 rsn:   0
  1 2r: 2.91E-25 2x: 1.00E-08 2u: 2.39E-16 ir: 1.92E-26 iu: 1.19E-17 rsn:   0
  2 2r: 1.95E-27 2x: 1.00E-08 2u: 5.74E-21 ir: 1.47E-28 iu: 2.28E-22 rsn: rtol

 Step     12 Time=  4.15382E-02 Dt=  1.81707E-02 [y] conv_reason: 3
  newton =   2 [      14] linear =    20 [        64] cuts =  0 [   0]
  --> SNES Linear/Non-Linear Iterations = 20 / 2
  --> SNES Residual: 0.195488E-26 0.195488E-26 0.146728E-27
  --> max change:  dcmx=   1.1851E-17  dc/dt=   2.0681E-23 [mol/s]
 Maximum Pore Velocity:   2.7399E+01 [m/y]
 CFL Limiting ( 1.0):   3.6341E-02 ->   2.2017E-02 [y]

== REACTIVE TRANSPORT ==========================================================
  0 2r: 6.74E-20 2x: 0.00E+00 2u: 0.00E+00 ir: 1.62E-20 iu: 0.00E+00 rsn:   0
  1 2r: 1.61E-25 2x: 1.00E-08 2u: 6.96E-17 ir: 1.05E-26 iu: 3.55E-18 rsn: stol

 Step     13 Time=  4.67466E-02 Dt=  5.20835E-03 [y] conv_reason: 4
  newton =   1 [      15] linear =     6 [        70] cuts =  0 [   0]
  --> SNES Linear/Non-Linear Iterations = 6 / 1
  --> SNES Residual: 0.160909E-24 0.160909E-24 0.105139E-25
  --> max change:  dcmx=   3.5493E-18  dc/dt=   2.1609E-23 [mol/s]
 Maximum Pore Velocity:   2.7399E+01 [m/y]

== RICHARDS FLOW ===============================================================
  0 2r: 6.18E-05 2x: 0.00E+00 2u: 0.00E+00 ir: 1.73E-05 iu: 0.00E+00 rsn:   0
  1 2r: 6.60E-07 2x: 7.81E+06 2u: 3.93E+04 ir: 3.57E-07 iu: 1.36E+03 rsn:   0
  2 2r: 2.40E-09 2x: 7.81E+06 2u: 4.76E+02 ir: 9.88E-10 iu: 2.21E+01 rsn:   0
  3 2r: 1.10E-15 2x: 7.81E+06 2u: 2.13E-01 ir: 2.79E-16 iu: 2.01E-02 rsn: itol_upd

 Step     13 Time=  9.35046E-02 Dt=  4.67580E-02 [y] conv_reason: 11
  newton =   3 [      29] linear =   210 [       933] cuts =  0 [   0]
  --> SNES Linear/Non-Linear Iterations = 210 / 3
  --> SNES Residual: 0.110391E-14 0.110391E-18 0.279204E-15
  --> max change: dpmx=   1.3607E+03

== REACTIVE TRANSPORT ==========================================================
  0 2r: 2.11E-19 2x: 0.00E+00 2u: 0.00E+00 ir: 3.00E-20 iu: 0.00E+00 rsn:   0
  1 2r: 2.94E-25 2x: 1.00E-08 2u: 3.01E-16 ir: 2.33E-26 iu: 1.78E-17 rsn:   0
  2 2r: 1.91E-27 2x: 1.00E-08 2u: 5.01E-21 ir: 1.22E-28 iu: 2.12E-22 rsn: rtol

 Step     14 Time=  6.87639E-02 Dt=  2.20173E-02 [y] conv_reason: 3
  newton =   2 [      17] linear =    24 [        94] cuts =  0 [   0]
  --> SNES Linear/Non-Linear Iterations = 24 / 2
  --> SNES Residual: 0.191265E-26 0.191265E-26 0.122273E-27
  --> max change:  dcmx=   1.7792E-17  dc/dt=   2.5624E-23 [mol/s]
 Maximum Pore Velocity:   2.6449E+01 [m/y]
 CFL Limiting ( 1.0):   4.4035E-02 ->   3.7809E-02 [y]

== REACTIVE TRANSPORT ==========================================================
  0 2r: 2.38E-19 2x: 0.00E+00 2u: 0.00E+00 ir: 3.40E-20 iu: 0.00E+00 rsn:   0
  1 2r: 2.02E-25 2x: 1.00E-08 2u: 3.57E-16 ir: 1.15E-26 iu: 2.02E-17 rsn:   0
  2 2r: 1.80E-27 2x: 1.00E-08 2u: 5.46E-21 ir: 1.16E-28 iu: 2.31E-22 rsn: rtol

 Step     15 Time=  9.35046E-02 Dt=  2.47407E-02 [y] conv_reason: 3
  newton =   2 [      19] linear =    26 [       120] cuts =  0 [   0]
  --> SNES Linear/Non-Linear Iterations = 26 / 2
  --> SNES Residual: 0.180090E-26 0.180090E-26 0.115568E-27
  --> max change:  dcmx=   2.0158E-17  dc/dt=   2.5836E-23 [mol/s]
 Maximum Pore Velocity:   2.6447E+01 [m/y]
 CFL Limiting ( 1.0):   4.9481E-02 ->   3.7812E-02 [y]

== RICHARDS FLOW ===============================================================
  0 2r: 1.38E-04 2x: 0.00E+00 2u: 0.00E+00 ir: 3.46E-05 iu: 0.00E+00 rsn:   0
  1 2r: 1.33E-06 2x: 7.87E+06 2u: 8.58E+04 ir: 5.24E-07 iu: 2.77E+03 rsn:   0
  2 2r: 1.30E-08 2x: 7.87E+06 2u: 2.32E+03 ir: 8.49E-09 iu: 9.95E+01 rsn:   0
  3 2r: 6.20E-14 2x: 7.87E+06 2u: 4.24E+00 ir: 1.41E-14 iu: 3.69E-01 rsn: itol_upd

 Step     14 Time=  1.75696E-01 Dt=  8.21918E-02 [y] conv_reason: 11
  newton =   3 [      32] linear =   202 [      1135] cuts =  0 [   0]
  --> SNES Linear/Non-Linear Iterations = 202 / 3
  --> SNES Residual: 0.619663E-13 0.619663E-17 0.140554E-13
  --> max change: dpmx=   2.7539E+03

== REACTIVE TRANSPORT ==========================================================
  0 2r: 2.49E-19 2x: 0.00E+00 2u: 0.00E+00 ir: 3.46E-20 iu: 0.00E+00 rsn:   0
  1 2r: 5.03E-25 2x: 1.00E-08 2u: 5.98E-16 ir: 4.17E-26 iu: 5.02E-17 rsn:   0
  2 2r: 1.75E-27 2x: 1.00E-08 2u: 1.69E-20 ir: 1.40E-28 iu: 7.62E-22 rsn: rtol

 Step     16 Time=  1.31316E-01 Dt=  3.78116E-02 [y] conv_reason: 3
  newton =   2 [      21] linear =    30 [       150] cuts =  0 [   0]
  --> SNES Linear/Non-Linear Iterations = 30 / 2
  --> SNES Residual: 0.175157E-26 0.175157E-26 0.140023E-27
  --> max change:  dcmx=   5.0164E-17  dc/dt=   4.2069E-23 [mol/s]
 Maximum Pore Velocity:   2.4218E+01 [m/y]
 CFL Limiting ( 1.0):   7.5623E-02 ->   4.1292E-02 [y]

== REACTIVE TRANSPORT ==========================================================
  0 2r: 2.94E-19 2x: 0.00E+00 2u: 0.00E+00 ir: 4.08E-20 iu: 0.00E+00 rsn:   0
  1 2r: 6.77E-25 2x: 1.00E-08 2u: 7.51E-16 ir: 4.87E-26 iu: 5.00E-17 rsn:   0
  2 2r: 1.72E-27 2x: 1.00E-08 2u: 2.90E-20 ir: 1.21E-28 iu: 1.26E-21 rsn: rtol

 Step     17 Time=  1.75696E-01 Dt=  4.43802E-02 [y] conv_reason: 3
  newton =   2 [      23] linear =    30 [       180] cuts =  0 [   0]
  --> SNES Linear/Non-Linear Iterations = 30 / 2
  --> SNES Residual: 0.171900E-26 0.171900E-26 0.121090E-27
  --> max change:  dcmx=   4.9963E-17  dc/dt=   3.5698E-23 [mol/s]
 Maximum Pore Velocity:   2.4212E+01 [m/y]
 CFL Limiting ( 1.0):   8.2192E-02 ->   4.1302E-02 [y]

== RICHARDS FLOW ===============================================================
  0 2r: 2.79E-04 2x: 0.00E+00 2u: 0.00E+00 ir: 6.11E-05 iu: 0.00E+00 rsn:   0
  1 2r: 4.16E-06 2x: 7.97E+06 2u: 1.43E+05 ir: 2.79E-06 iu: 4.83E+03 rsn:   0
  2 2r: 5.44E-08 2x: 7.98E+06 2u: 8.31E+03 ir: 2.31E-08 iu: 4.29E+02 rsn:   0
  3 2r: 5.31E-13 2x: 7.98E+06 2u: 7.95E+01 ir: 1.24E-13 iu: 7.72E+00 rsn: rtol

 Step     15 Time=  2.57888E-01 Dt=  8.21918E-02 [y] conv_reason: 3
  newton =   3 [      35] linear =   203 [      1338] cuts =  0 [   0]
  --> SNES Linear/Non-Linear Iterations = 203 / 3
  --> SNES Residual: 0.530698E-12 0.530698E-16 0.123693E-12
  --> max change: dpmx=   4.8323E+03

== REACTIVE TRANSPORT ==========================================================
  0 2r: 2.85E-19 2x: 0.00E+00 2u: 0.00E+00 ir: 7.89E-20 iu: 0.00E+00 rsn:   0
  1 2r: 9.25E-25 2x: 1.00E-08 2u: 1.19E-15 ir: 4.94E-26 iu: 1.39E-16 rsn:   0
  2 2r: 1.61E-27 2x: 1.00E-08 2u: 4.13E-20 ir: 1.32E-28 iu: 1.76E-21 rsn: rtol

 Step     18 Time=  2.16998E-01 Dt=  4.13019E-02 [y] conv_reason: 3
  newton =   2 [      25] linear =    26 [       206] cuts =  0 [   0]
  --> SNES Linear/Non-Linear Iterations = 26 / 2
  --> SNES Residual: 0.161434E-26 0.161434E-26 0.131543E-27
  --> max change:  dcmx=   1.3879E-16  dc/dt=   1.0656E-22 [mol/s]
 Maximum Pore Velocity:   3.5001E+01 [m/y]
 CFL Limiting ( 1.0):   8.2192E-02 ->   9.4088E-03 [y]

== REACTIVE TRANSPORT ==========================================================
  0 2r: 7.31E-20 2x: 0.00E+00 2u: 0.00E+00 ir: 1.94E-20 iu: 0.00E+00 rsn:   0
  1 2r: 4.22E-25 2x: 1.00E-08 2u: 2.75E-16 ir: 2.54E-26 iu: 2.52E-17 rsn:   0
  2 2r: 1.65E-27 2x: 1.00E-08 2u: 4.62E-21 ir: 1.70E-28 iu: 2.38E-22 rsn: stol

 Step     19 Time=  2.26407E-01 Dt=  9.40881E-03 [y] conv_reason: 4
  newton =   2 [      27] linear =    12 [       218] cuts =  0 [   0]
  --> SNES Linear/Non-Linear Iterations = 12 / 2
  --> SNES Residual: 0.164730E-26 0.164730E-26 0.170394E-27
  --> max change:  dcmx=   2.5172E-17  dc/dt=   8.4837E-23 [mol/s]
 Maximum Pore Velocity:   3.4643E+01 [m/y]
 CFL Limiting ( 1.0):   1.8818E-02 ->   9.5403E-03 [y]

== REACTIVE TRANSPORT ==========================================================
  0 2r: 7.42E-20 2x: 0.00E+00 2u: 0.00E+00 ir: 1.97E-20 iu: 0.00E+00 rsn:   0
  1 2r: 4.38E-25 2x: 1.00E-08 2u: 2.83E-16 ir: 2.63E-26 iu: 2.35E-17 rsn:   0
  2 2r: 1.63E-27 2x: 1.00E-08 2u: 4.85E-21 ir: 1.12E-28 iu: 2.50E-22 rsn: stol

 Step     20 Time=  2.35947E-01 Dt=  9.54031E-03 [y] conv_reason: 4
  newton =   2 [      29] linear =    12 [       230] cuts =  0 [   0]
  --> SNES Linear/Non-Linear Iterations = 12 / 2
  --> SNES Residual: 0.162808E-26 0.162808E-26 0.112018E-27
  --> max change:  dcmx=   2.3492E-17  dc/dt=   7.8083E-23 [mol/s]
 Maximum Pore Velocity:   3.4287E+01 [m/y]
 CFL Limiting ( 1.0):   1.9081E-02 ->   9.6737E-03 [y]

== REACTIVE TRANSPORT ==========================================================
  0 2r: 7.52E-20 2x: 0.00E+00 2u: 0.00E+00 ir: 2.00E-20 iu: 0.00E+00 rsn:   0
  1 2r: 4.73E-25 2x: 1.00E-08 2u: 2.91E-16 ir: 2.83E-26 iu: 2.30E-17 rsn:   0
  2 2r: 1.65E-27 2x: 1.00E-08 2u: 5.31E-21 ir: 1.80E-28 iu: 2.72E-22 rsn: stol

 Step     21 Time=  2.45621E-01 Dt=  9.67365E-03 [y] conv_reason: 4
  newton =   2 [      31] linear =    12 [       242] cuts =  0 [   0]
  --> SNES Linear/Non-Linear Iterations = 12 / 2
  --> SNES Residual: 0.164906E-26 0.164906E-26 0.179860E-27
  --> max change:  dcmx=   2.2967E-17  dc/dt=   7.5285E-23 [mol/s]
 Maximum Pore Velocity:   3.3934E+01 [m/y]
 CFL Limiting ( 1.0):   1.9347E-02 ->   9.8089E-03 [y]

== REACTIVE TRANSPORT ==========================================================
  0 2r: 7.62E-20 2x: 0.00E+00 2u: 0.00E+00 ir: 2.03E-20 iu: 0.00E+00 rsn:   0
  1 2r: 9.58E-26 2x: 1.00E-08 2u: 2.99E-16 ir: 8.95E-27 iu: 2.29E-17 rsn:   0
  2 2r: 1.68E-27 2x: 1.00E-08 2u: 8.43E-22 ir: 2.19E-28 iu: 4.54E-23 rsn: stol

 Step     22 Time=  2.55430E-01 Dt=  9.80886E-03 [y] conv_reason: 4
  newton =   2 [      33] linear =    14 [       256] cuts =  0 [   0]
  --> SNES Linear/Non-Linear Iterations = 14 / 2
  --> SNES Residual: 0.167804E-26 0.167804E-26 0.219303E-27
  --> max change:  dcmx=   2.2884E-17  dc/dt=   7.3979E-23 [mol/s]
 Maximum Pore Velocity:   3.3584E+01 [m/y]
 CFL Limiting ( 1.0):   1.9618E-02 ->   9.9460E-03 [y]

== REACTIVE TRANSPORT ==========================================================
  0 2r: 3.20E-20 2x: 0.00E+00 2u: 0.00E+00 ir: 5.26E-21 iu: 0.00E+00 rsn:   0
  1 2r: 9.16E-26 2x: 1.00E-08 2u: 7.52E-17 ir: 1.10E-26 iu: 5.72E-18 rsn: stol

 Step     23 Time=  2.57888E-01 Dt=  2.45829E-03 [y] conv_reason: 4
  newton =   1 [      34] linear =     4 [       260] cuts =  0 [   0]
  --> SNES Linear/Non-Linear Iterations = 4 / 1
  --> SNES Residual: 0.916492E-25 0.916492E-25 0.110377E-25
  --> max change:  dcmx=   5.7153E-18  dc/dt=   7.3723E-23 [mol/s]
 Maximum Pore Velocity:   3.3497E+01 [m/y]

== RICHARDS FLOW ===============================================================
  0 2r: 3.12E-04 2x: 0.00E+00 2u: 0.00E+00 ir: 6.28E-05 iu: 0.00E+00 rsn:   0
  1 2r: 1.55E-05 2x: 8.02E+06 2u: 8.47E+04 ir: 1.11E-05 iu: 4.73E+03 rsn:   0
  2 2r: 2.45E-07 2x: 8.03E+06 2u: 7.38E+03 ir: 1.23E-07 iu: 7.75E+02 rsn:   0
  3 2r: 2.34E-10 2x: 8.03E+06 2u: 2.31E+02 ir: 5.65E-11 iu: 4.03E+01 rsn:   0
  4 2r: 1.57E-14 2x: 8.03E+06 2u: 5.69E-01 ir: 8.16E-16 iu: 1.27E-01 rsn: itol_upd

 Step     16 Time=  2.73973E-01 Dt=  1.60845E-02 [y] conv_reason: 11
  newton =   4 [      39] linear =   181 [      1519] cuts =  0 [   0]
  --> SNES Linear/Non-Linear Iterations = 181 / 4
  --> SNES Residual: 0.156598E-13 0.156598E-17 0.815788E-15
  --> max change: dpmx=   4.7223E+03

== REACTIVE TRANSPORT ==========================================================
  0 2r: 7.03E-19 2x: 0.00E+00 2u: 0.00E+00 ir: 2.95E-19 iu: 0.00E+00 rsn:   0
  1 2r: 1.62E-24 2x: 1.00E-08 2u: 1.04E-15 ir: 1.48E-25 iu: 1.06E-16 rsn:   0
  2 2r: 2.63E-27 2x: 1.00E-08 2u: 1.73E-20 ir: 4.59E-28 iu: 1.25E-21 rsn: rtol

 Step     24 Time=  2.67834E-01 Dt=  9.94596E-03 [y] conv_reason: 3
  newton =   2 [      36] linear =    17 [       277] cuts =  0 [   0]
  --> SNES Linear/Non-Linear Iterations = 17 / 2
  --> SNES Residual: 0.262886E-26 0.262886E-26 0.459117E-27
  --> max change:  dcmx=   1.0567E-16  dc/dt=   3.3689E-22 [mol/s]
 Maximum Pore Velocity:   1.1612E+02 [m/y]
 CFL Limiting ( 1.0):   1.9892E-02 ->   2.7902E-03 [y]

== REACTIVE TRANSPORT ==========================================================
  0 2r: 2.31E-19 2x: 0.00E+00 2u: 0.00E+00 ir: 8.82E-20 iu: 0.00E+00 rsn:   0
  1 2r: 3.22E-25 2x: 1.00E-08 2u: 3.02E-16 ir: 6.13E-26 iu: 3.02E-17 rsn:   0
  2 2r: 2.42E-27 2x: 1.00E-08 2u: 6.24E-22 ir: 3.00E-28 iu: 8.51E-23 rsn: stol

 Step     25 Time=  2.70624E-01 Dt=  2.79019E-03 [y] conv_reason: 4
  newton =   2 [      38] linear =    11 [       288] cuts =  0 [   0]
  --> SNES Linear/Non-Linear Iterations = 11 / 2
  --> SNES Residual: 0.241669E-26 0.241669E-26 0.299767E-27
  --> max change:  dcmx=   3.0210E-17  dc/dt=   3.4333E-22 [mol/s]
 Maximum Pore Velocity:   1.1427E+02 [m/y]
 CFL Limiting ( 1.0):   5.5804E-03 ->   2.8497E-03 [y]

== REACTIVE TRANSPORT ==========================================================
  0 2r: 2.36E-19 2x: 0.00E+00 2u: 0.00E+00 ir: 9.06E-20 iu: 0.00E+00 rsn:   0
  1 2r: 2.90E-25 2x: 1.00E-08 2u: 3.17E-16 ir: 5.53E-26 iu: 3.12E-17 rsn:   0
  2 2r: 2.61E-27 2x: 1.00E-08 2u: 5.85E-22 ir: 4.54E-28 iu: 7.94E-23 rsn: stol

 Step     26 Time=  2.73474E-01 Dt=  2.84968E-03 [y] conv_reason: 4
  newton =   2 [      40] linear =    12 [       300] cuts =  0 [   0]
  --> SNES Linear/Non-Linear Iterations = 12 / 2
  --> SNES Residual: 0.261272E-26 0.261272E-26 0.454384E-27
  --> max change:  dcmx=   3.1166E-17  dc/dt=   3.4680E-22 [mol/s]
 Maximum Pore Velocity:   1.1243E+02 [m/y]
 CFL Limiting ( 1.0):   5.6994E-03 ->   2.9104E-03 [y]

== REACTIVE TRANSPORT ==========================================================
  0 2r: 1.01E-19 2x: 0.00E+00 2u: 0.00E+00 ir: 2.08E-20 iu: 0.00E+00 rsn:   0
  1 2r: 1.90E-25 2x: 1.00E-08 2u: 5.56E-17 ir: 3.60E-26 iu: 5.47E-18 rsn: stol

 Step     27 Time=  2.73973E-01 Dt=  4.98652E-04 [y] conv_reason: 4
  newton =   1 [      41] linear =     3 [       303] cuts =  0 [   0]
  --> SNES Linear/Non-Linear Iterations = 3 / 1
  --> SNES Residual: 0.189961E-24 0.189961E-24 0.359721E-25
  --> max change:  dcmx=   5.4651E-18  dc/dt=   3.4753E-22 [mol/s]
 Maximum Pore Velocity:   1.1212E+02 [m/y]

 --> appending to hdf5 output file: 2D_solute.h5
      0.05 Seconds to write HDF5 file.

== RICHARDS FLOW ===============================================================
  0 2r: 6.34E-05 2x: 0.00E+00 2u: 0.00E+00 ir: 1.74E-05 iu: 0.00E+00 rsn:   0
  1 2r: 1.03E-05 2x: 8.16E+06 2u: 1.85E+05 ir: 4.22E-06 iu: 7.19E+03 rsn:   0
  2 2r: 1.36E-06 2x: 8.15E+06 2u: 1.90E+04 ir: 5.96E-07 iu: 1.63E+03 rsn:   0
  3 2r: 3.33E-09 2x: 8.15E+06 2u: 7.59E+02 ir: 8.88E-10 iu: 8.90E+01 rsn:   0
  4 2r: 1.75E-13 2x: 8.15E+06 2u: 2.70E+00 ir: 6.78E-14 iu: 4.25E-01 rsn: itol_upd

 Step     17 Time=  3.56164E-01 Dt=  8.21918E-02 [y] conv_reason: 11
  newton =   4 [      43] linear =   224 [      1743] cuts =  0 [   0]
  --> SNES Linear/Non-Linear Iterations = 224 / 4
  --> SNES Residual: 0.174500E-12 0.174500E-16 0.677859E-13
  --> max change: dpmx=   5.5503E+03

== REACTIVE TRANSPORT ==========================================================
  0 2r: 3.96E-20 2x: 0.00E+00 2u: 0.00E+00 ir: 6.08E-21 iu: 0.00E+00 rsn:   0
  1 2r: 6.03E-25 2x: 1.00E-08 2u: 1.19E-16 ir: 9.05E-26 iu: 9.20E-18 rsn:   0
  2 2r: 1.54E-27 2x: 1.00E-08 2u: 9.54E-22 ir: 1.14E-28 iu: 1.12E-22 rsn: stol

 Step     28 Time=  2.76883E-01 Dt=  2.91044E-03 [y] conv_reason: 4
  newton =   2 [      43] linear =     8 [       311] cuts =  0 [   0]
  --> SNES Linear/Non-Linear Iterations = 8 / 2
  --> SNES Residual: 0.154443E-26 0.154443E-26 0.113596E-27
  --> max change:  dcmx=   9.1984E-18  dc/dt=   1.0022E-22 [mol/s]
 Maximum Pore Velocity:   4.0264E+01 [m/y]

== REACTIVE TRANSPORT ==========================================================
  0 2r: 5.61E-20 2x: 0.00E+00 2u: 0.00E+00 ir: 1.31E-20 iu: 0.00E+00 rsn:   0
  1 2r: 1.08E-25 2x: 1.00E-08 2u: 2.29E-16 ir: 1.39E-26 iu: 1.61E-17 rsn:   0
  2 2r: 1.50E-27 2x: 1.00E-08 2u: 3.23E-22 ir: 1.23E-28 iu: 3.74E-23 rsn: stol

 Step     29 Time=  2.82704E-01 Dt=  5.82087E-03 [y] conv_reason: 4
  newton =   2 [      45] linear =    11 [       322] cuts =  0 [   0]
  --> SNES Linear/Non-Linear Iterations = 11 / 2
  --> SNES Residual: 0.150279E-26 0.150279E-26 0.123062E-27
  --> max change:  dcmx=   1.6067E-17  dc/dt=   8.7526E-23 [mol/s]
 Maximum Pore Velocity:   4.0245E+01 [m/y]
 CFL Limiting ( 1.0):   1.1642E-02 ->   9.6124E-03 [y]

== REACTIVE TRANSPORT ==========================================================
  0 2r: 8.08E-20 2x: 0.00E+00 2u: 0.00E+00 ir: 2.19E-20 iu: 0.00E+00 rsn:   0
  1 2r: 2.63E-25 2x: 1.00E-08 2u: 3.65E-16 ir: 3.20E-26 iu: 2.32E-17 rsn:   0
  2 2r: 1.55E-27 2x: 1.00E-08 2u: 2.36E-21 ir: 1.96E-28 iu: 2.02E-22 rsn: stol

 Step     30 Time=  2.92316E-01 Dt=  9.61241E-03 [y] conv_reason: 4
  newton =   2 [      47] linear =    13 [       335] cuts =  0 [   0]
  --> SNES Linear/Non-Linear Iterations = 13 / 2
  --> SNES Residual: 0.154806E-26 0.154806E-26 0.195638E-27
  --> max change:  dcmx=   2.3209E-17  dc/dt=   7.6561E-23 [mol/s]
 Maximum Pore Velocity:   4.0214E+01 [m/y]
 CFL Limiting ( 1.0):   1.9225E-02 ->   9.6322E-03 [y]

== REACTIVE TRANSPORT ==========================================================
  0 2r: 8.06E-20 2x: 0.00E+00 2u: 0.00E+00 ir: 2.18E-20 iu: 0.00E+00 rsn:   0
  1 2r: 2.90E-25 2x: 1.00E-08 2u: 3.59E-16 ir: 3.18E-26 iu: 2.11E-17 rsn:   0
  2 2r: 1.58E-27 2x: 1.00E-08 2u: 2.69E-21 ir: 1.36E-28 iu: 2.11E-22 rsn: stol

 Step     31 Time=  3.01948E-01 Dt=  9.63215E-03 [y] conv_reason: 4
  newton =   2 [      49] linear =    13 [       348] cuts =  0 [   0]
  --> SNES Linear/Non-Linear Iterations = 13 / 2
  --> SNES Residual: 0.157673E-26 0.157673E-26 0.135684E-27
  --> max change:  dcmx=   2.1107E-17  dc/dt=   6.9485E-23 [mol/s]
 Maximum Pore Velocity:   4.0183E+01 [m/y]
 CFL Limiting ( 1.0):   1.9264E-02 ->   9.6519E-03 [y]

== REACTIVE TRANSPORT ==========================================================
  0 2r: 8.05E-20 2x: 0.00E+00 2u: 0.00E+00 ir: 2.18E-20 iu: 0.00E+00 rsn:   0
  1 2r: 3.18E-25 2x: 1.00E-08 2u: 3.55E-16 ir: 3.41E-26 iu: 1.96E-17 rsn:   0
  2 2r: 1.58E-27 2x: 1.00E-08 2u: 3.05E-21 ir: 1.85E-28 iu: 2.28E-22 rsn: stol

 Step     32 Time=  3.11600E-01 Dt=  9.65194E-03 [y] conv_reason: 4
  newton =   2 [      51] linear =    13 [       361] cuts =  0 [   0]
  --> SNES Linear/Non-Linear Iterations = 13 / 2
  --> SNES Residual: 0.158047E-26 0.158047E-26 0.184593E-27
  --> max change:  dcmx=   1.9585E-17  dc/dt=   6.4343E-23 [mol/s]
 Maximum Pore Velocity:   4.0152E+01 [m/y]
 CFL Limiting ( 1.0):   1.9304E-02 ->   9.6718E-03 [y]

== REACTIVE TRANSPORT ==========================================================
  0 2r: 8.05E-20 2x: 0.00E+00 2u: 0.00E+00 ir: 2.19E-20 iu: 0.00E+00 rsn:   0
  1 2r: 3.47E-25 2x: 1.00E-08 2u: 3.52E-16 ir: 3.91E-26 iu: 1.84E-17 rsn:   0
  2 2r: 1.55E-27 2x: 1.00E-08 2u: 3.37E-21 ir: 2.71E-28 iu: 2.54E-22 rsn: stol

 Step     33 Time=  3.21272E-01 Dt=  9.67176E-03 [y] conv_reason: 4
  newton =   2 [      53] linear =    13 [       374] cuts =  0 [   0]
  --> SNES Linear/Non-Linear Iterations = 13 / 2
  --> SNES Residual: 0.154923E-26 0.154923E-26 0.271368E-27
  --> max change:  dcmx=   1.8421E-17  dc/dt=   6.0394E-23 [mol/s]
 Maximum Pore Velocity:   4.0121E+01 [m/y]
 CFL Limiting ( 1.0):   1.9344E-02 ->   9.6916E-03 [y]

== REACTIVE TRANSPORT ==========================================================
  0 2r: 8.06E-20 2x: 0.00E+00 2u: 0.00E+00 ir: 2.19E-20 iu: 0.00E+00 rsn:   0
  1 2r: 3.69E-25 2x: 1.00E-08 2u: 3.51E-16 ir: 4.59E-26 iu: 1.75E-17 rsn:   0
  2 2r: 1.56E-27 2x: 1.00E-08 2u: 3.59E-21 ir: 1.88E-28 iu: 2.80E-22 rsn: stol

 Step     34 Time=  3.30964E-01 Dt=  9.69162E-03 [y] conv_reason: 4
  newton =   2 [      55] linear =    13 [       387] cuts =  0 [   0]
  --> SNES Linear/Non-Linear Iterations = 13 / 2
  --> SNES Residual: 0.156290E-26 0.156290E-26 0.187749E-27
  --> max change:  dcmx=   1.7500E-17  dc/dt=   5.7258E-23 [mol/s]
 Maximum Pore Velocity:   4.0090E+01 [m/y]
 CFL Limiting ( 1.0):   1.9383E-02 ->   9.7115E-03 [y]

== REACTIVE TRANSPORT ==========================================================
  0 2r: 8.07E-20 2x: 0.00E+00 2u: 0.00E+00 ir: 2.19E-20 iu: 0.00E+00 rsn:   0
  1 2r: 3.80E-25 2x: 1.00E-08 2u: 3.50E-16 ir: 5.00E-26 iu: 1.69E-17 rsn:   0
  2 2r: 1.54E-27 2x: 1.00E-08 2u: 3.69E-21 ir: 1.53E-28 iu: 3.04E-22 rsn: stol

 Step     35 Time=  3.40675E-01 Dt=  9.71153E-03 [y] conv_reason: 4
  newton =   2 [      57] linear =    13 [       400] cuts =  0 [   0]
  --> SNES Linear/Non-Linear Iterations = 13 / 2
  --> SNES Residual: 0.153775E-26 0.153775E-26 0.153039E-27
  --> max change:  dcmx=   1.6853E-17  dc/dt=   5.5029E-23 [mol/s]
 Maximum Pore Velocity:   4.0059E+01 [m/y]
 CFL Limiting ( 1.0):   1.9423E-02 ->   9.7315E-03 [y]

== REACTIVE TRANSPORT ==========================================================
  0 2r: 8.08E-20 2x: 0.00E+00 2u: 0.00E+00 ir: 2.20E-20 iu: 0.00E+00 rsn:   0
  1 2r: 3.85E-25 2x: 1.00E-08 2u: 3.50E-16 ir: 5.22E-26 iu: 1.63E-17 rsn:   0
  2 2r: 1.57E-27 2x: 1.00E-08 2u: 3.73E-21 ir: 1.36E-28 iu: 3.23E-22 rsn: stol

 Step     36 Time=  3.50407E-01 Dt=  9.73148E-03 [y] conv_reason: 4
  newton =   2 [      59] linear =    13 [       413] cuts =  0 [   0]
  --> SNES Linear/Non-Linear Iterations = 13 / 2
  --> SNES Residual: 0.156967E-26 0.156967E-26 0.135684E-27
  --> max change:  dcmx=   1.6299E-17  dc/dt=   5.3111E-23 [mol/s]
 Maximum Pore Velocity:   4.0028E+01 [m/y]
 CFL Limiting ( 1.0):   1.9463E-02 ->   9.7515E-03 [y]

== REACTIVE TRANSPORT ==========================================================
  0 2r: 5.42E-20 2x: 0.00E+00 2u: 0.00E+00 ir: 1.30E-20 iu: 0.00E+00 rsn:   0
  1 2r: 1.11E-25 2x: 1.00E-08 2u: 2.07E-16 ir: 1.88E-26 iu: 9.49E-18 rsn:   0
  2 2r: 1.55E-27 2x: 1.00E-08 2u: 5.50E-22 ir: 1.78E-28 iu: 6.52E-23 rsn: stol

 Step     37 Time=  3.56164E-01 Dt=  5.75758E-03 [y] conv_reason: 4
  newton =   2 [      61] linear =    11 [       424] cuts =  0 [   0]
  --> SNES Linear/Non-Linear Iterations = 11 / 2
  --> SNES Residual: 0.155330E-26 0.155330E-26 0.178283E-27
  --> max change:  dcmx=   9.4925E-18  dc/dt=   5.2280E-23 [mol/s]
 Maximum Pore Velocity:   4.0009E+01 [m/y]
 CFL Limiting ( 1.0):   1.1515E-02 ->   9.7633E-03 [y]

== RICHARDS FLOW ===============================================================
  0 2r: 3.46E-04 2x: 0.00E+00 2u: 0.00E+00 ir: 6.30E-05 iu: 0.00E+00 rsn:   0
  1 2r: 9.02E-06 2x: 8.33E+06 2u: 2.27E+05 ir: 5.02E-06 iu: 6.48E+03 rsn:   0
  2 2r: 4.35E-08 2x: 8.33E+06 2u: 6.14E+03 ir: 1.29E-08 iu: 3.33E+02 rsn:   0
  3 2r: 1.78E-12 2x: 8.33E+06 2u: 3.76E+01 ir: 2.76E-13 iu: 4.06E+00 rsn: rtol

 Step     18 Time=  4.38356E-01 Dt=  8.21918E-02 [y] conv_reason: 3
  newton =   3 [      46] linear =   217 [      1960] cuts =  0 [   0]
  --> SNES Linear/Non-Linear Iterations = 217 / 3
  --> SNES Residual: 0.177519E-11 0.177519E-15 0.276009E-12
  --> max change: dpmx=   6.2670E+03

== REACTIVE TRANSPORT ==========================================================
  0 2r: 1.00E-19 2x: 0.00E+00 2u: 0.00E+00 ir: 2.70E-20 iu: 0.00E+00 rsn:   0
  1 2r: 5.51E-25 2x: 1.00E-08 2u: 4.84E-16 ir: 6.77E-26 iu: 2.60E-17 rsn:   0
  2 2r: 1.86E-27 2x: 1.00E-08 2u: 3.69E-21 ir: 4.35E-28 iu: 2.96E-22 rsn: stol

 Step     38 Time=  3.65928E-01 Dt=  9.76329E-03 [y] conv_reason: 4
  newton =   2 [      63] linear =    15 [       439] cuts =  0 [   0]
  --> SNES Linear/Non-Linear Iterations = 15 / 2
  --> SNES Residual: 0.186421E-26 0.186421E-26 0.435451E-27
  --> max change:  dcmx=   2.5993E-17  dc/dt=   8.4422E-23 [mol/s]
 Maximum Pore Velocity:   6.3089E+01 [m/y]
 CFL Limiting ( 1.0):   1.9527E-02 ->   5.7871E-03 [y]

== REACTIVE TRANSPORT ==========================================================
  0 2r: 7.09E-20 2x: 0.00E+00 2u: 0.00E+00 ir: 1.90E-20 iu: 0.00E+00 rsn:   0
  1 2r: 1.09E-25 2x: 1.00E-08 2u: 2.88E-16 ir: 1.70E-26 iu: 1.48E-17 rsn:   0
  2 2r: 1.81E-27 2x: 1.00E-08 2u: 6.55E-22 ir: 2.48E-28 iu: 6.69E-23 rsn: stol

 Step     39 Time=  3.71715E-01 Dt=  5.78709E-03 [y] conv_reason: 4
  newton =   2 [      65] linear =    13 [       452] cuts =  0 [   0]
  --> SNES Linear/Non-Linear Iterations = 13 / 2
  --> SNES Residual: 0.181028E-26 0.181028E-26 0.247702E-27
  --> max change:  dcmx=   1.4769E-17  dc/dt=   8.0926E-23 [mol/s]
 Maximum Pore Velocity:   6.2647E+01 [m/y]
 CFL Limiting ( 1.0):   1.1574E-02 ->   5.8420E-03 [y]

== REACTIVE TRANSPORT ==========================================================
  0 2r: 7.18E-20 2x: 0.00E+00 2u: 0.00E+00 ir: 1.96E-20 iu: 0.00E+00 rsn:   0
  1 2r: 1.22E-25 2x: 1.00E-08 2u: 2.92E-16 ir: 1.90E-26 iu: 1.46E-17 rsn:   0
  2 2r: 1.63E-27 2x: 1.00E-08 2u: 7.39E-22 ir: 1.75E-28 iu: 7.48E-23 rsn: stol

 Step     40 Time=  3.77557E-01 Dt=  5.84198E-03 [y] conv_reason: 4
  newton =   2 [      67] linear =    13 [       465] cuts =  0 [   0]
  --> SNES Linear/Non-Linear Iterations = 13 / 2
  --> SNES Residual: 0.163476E-26 0.163476E-26 0.175127E-27
  --> max change:  dcmx=   1.4598E-17  dc/dt=   7.9234E-23 [mol/s]
 Maximum Pore Velocity:   6.2208E+01 [m/y]
 CFL Limiting ( 1.0):   1.1684E-02 ->   5.8974E-03 [y]

== REACTIVE TRANSPORT ==========================================================
  0 2r: 7.25E-20 2x: 0.00E+00 2u: 0.00E+00 ir: 1.99E-20 iu: 0.00E+00 rsn:   0
  1 2r: 1.33E-25 2x: 1.00E-08 2u: 2.97E-16 ir: 2.05E-26 iu: 1.46E-17 rsn:   0
  2 2r: 1.71E-27 2x: 1.00E-08 2u: 8.11E-22 ir: 2.73E-28 iu: 8.16E-23 rsn: stol

 Step     41 Time=  3.83454E-01 Dt=  5.89739E-03 [y] conv_reason: 4
  newton =   2 [      69] linear =    13 [       478] cuts =  0 [   0]
  --> SNES Linear/Non-Linear Iterations = 13 / 2
  --> SNES Residual: 0.170608E-26 0.170608E-26 0.272946E-27
  --> max change:  dcmx=   1.4596E-17  dc/dt=   7.8484E-23 [mol/s]
 Maximum Pore Velocity:   6.1771E+01 [m/y]
 CFL Limiting ( 1.0):   1.1795E-02 ->   5.9533E-03 [y]

== REACTIVE TRANSPORT ==========================================================
  0 2r: 7.31E-20 2x: 0.00E+00 2u: 0.00E+00 ir: 2.02E-20 iu: 0.00E+00 rsn:   0
  1 2r: 1.42E-25 2x: 1.00E-08 2u: 3.01E-16 ir: 2.19E-26 iu: 1.47E-17 rsn:   0
  2 2r: 1.66E-27 2x: 1.00E-08 2u: 8.77E-22 ir: 1.61E-28 iu: 8.78E-23 rsn: stol

 Step     42 Time=  3.89407E-01 Dt=  5.95332E-03 [y] conv_reason: 4
  newton =   2 [      71] linear =    13 [       491] cuts =  0 [   0]
  --> SNES Linear/Non-Linear Iterations = 13 / 2
  --> SNES Residual: 0.166004E-26 0.166004E-26 0.160928E-27
  --> max change:  dcmx=   1.4669E-17  dc/dt=   7.8132E-23 [mol/s]
 Maximum Pore Velocity:   6.1335E+01 [m/y]
 CFL Limiting ( 1.0):   1.1907E-02 ->   6.0098E-03 [y]

== REACTIVE TRANSPORT ==========================================================
  0 2r: 7.37E-20 2x: 0.00E+00 2u: 0.00E+00 ir: 2.04E-20 iu: 0.00E+00 rsn:   0
  1 2r: 1.52E-25 2x: 1.00E-08 2u: 3.05E-16 ir: 2.35E-26 iu: 1.48E-17 rsn:   0
  2 2r: 1.76E-27 2x: 1.00E-08 2u: 9.42E-22 ir: 2.10E-28 iu: 9.41E-23 rsn: stol

 Step     43 Time=  3.95417E-01 Dt=  6.00979E-03 [y] conv_reason: 4
  newton =   2 [      73] linear =    13 [       504] cuts =  0 [   0]
  --> SNES Linear/Non-Linear Iterations = 13 / 2
  --> SNES Residual: 0.175989E-26 0.175989E-26 0.209837E-27
  --> max change:  dcmx=   1.4778E-17  dc/dt=   7.7972E-23 [mol/s]
 Maximum Pore Velocity:   6.0902E+01 [m/y]
 CFL Limiting ( 1.0):   1.2020E-02 ->   6.0668E-03 [y]

== REACTIVE TRANSPORT ==========================================================
  0 2r: 7.43E-20 2x: 0.00E+00 2u: 0.00E+00 ir: 2.06E-20 iu: 0.00E+00 rsn:   0
  1 2r: 1.62E-25 2x: 1.00E-08 2u: 3.10E-16 ir: 2.48E-26 iu: 1.49E-17 rsn:   0
  2 2r: 1.78E-27 2x: 1.00E-08 2u: 1.01E-21 ir: 2.56E-28 iu: 1.01E-22 rsn: stol

 Step     44 Time=  4.01484E-01 Dt=  6.06679E-03 [y] conv_reason: 4
  newton =   2 [      75] linear =    13 [       517] cuts =  0 [   0]
  --> SNES Linear/Non-Linear Iterations = 13 / 2
  --> SNES Residual: 0.178006E-26 0.178006E-26 0.255591E-27
  --> max change:  dcmx=   1.4907E-17  dc/dt=   7.7915E-23 [mol/s]
 Maximum Pore Velocity:   6.0471E+01 [m/y]
 CFL Limiting ( 1.0):   1.2134E-02 ->   6.1243E-03 [y]

== REACTIVE TRANSPORT ==========================================================
  0 2r: 7.49E-20 2x: 0.00E+00 2u: 0.00E+00 ir: 2.08E-20 iu: 0.00E+00 rsn:   0
  1 2r: 1.72E-25 2x: 1.00E-08 2u: 3.14E-16 ir: 2.66E-26 iu: 1.50E-17 rsn:   0
  2 2r: 1.84E-27 2x: 1.00E-08 2u: 1.08E-21 ir: 2.32E-28 iu: 1.08E-22 rsn: stol

 Step     45 Time=  4.07608E-01 Dt=  6.12433E-03 [y] conv_reason: 4
  newton =   2 [      77] linear =    13 [       530] cuts =  0 [   0]
  --> SNES Linear/Non-Linear Iterations = 13 / 2
  --> SNES Residual: 0.183534E-26 0.183534E-26 0.231925E-27
  --> max change:  dcmx=   1.5049E-17  dc/dt=   7.7919E-23 [mol/s]
 Maximum Pore Velocity:   6.0042E+01 [m/y]
 CFL Limiting ( 1.0):   1.2249E-02 ->   6.1824E-03 [y]

== REACTIVE TRANSPORT ==========================================================
  0 2r: 7.54E-20 2x: 0.00E+00 2u: 0.00E+00 ir: 2.10E-20 iu: 0.00E+00 rsn:   0
  1 2r: 1.83E-25 2x: 1.00E-08 2u: 3.18E-16 ir: 2.83E-26 iu: 1.52E-17 rsn:   0
  2 2r: 1.76E-27 2x: 1.00E-08 2u: 1.16E-21 ir: 3.06E-28 iu: 1.16E-22 rsn: stol

 Step     46 Time=  4.13791E-01 Dt=  6.18242E-03 [y] conv_reason: 4
  newton =   2 [      79] linear =    13 [       543] cuts =  0 [   0]
  --> SNES Linear/Non-Linear Iterations = 13 / 2
  --> SNES Residual: 0.176373E-26 0.176373E-26 0.306078E-27
  --> max change:  dcmx=   1.5200E-17  dc/dt=   7.7961E-23 [mol/s]
 Maximum Pore Velocity:   5.9615E+01 [m/y]
 CFL Limiting ( 1.0):   1.2365E-02 ->   6.2411E-03 [y]

== REACTIVE TRANSPORT ==========================================================
  0 2r: 7.60E-20 2x: 0.00E+00 2u: 0.00E+00 ir: 2.12E-20 iu: 0.00E+00 rsn:   0
  1 2r: 1.95E-25 2x: 1.00E-08 2u: 3.23E-16 ir: 3.04E-26 iu: 1.54E-17 rsn:   0
  2 2r: 1.73E-27 2x: 1.00E-08 2u: 1.24E-21 ir: 2.62E-28 iu: 1.25E-22 rsn: stol

 Step     47 Time=  4.20032E-01 Dt=  6.24106E-03 [y] conv_reason: 4
  newton =   2 [      81] linear =    13 [       556] cuts =  0 [   0]
  --> SNES Linear/Non-Linear Iterations = 13 / 2
  --> SNES Residual: 0.172569E-26 0.172569E-26 0.261902E-27
  --> max change:  dcmx=   1.5357E-17  dc/dt=   7.8025E-23 [mol/s]
 Maximum Pore Velocity:   5.9190E+01 [m/y]
 CFL Limiting ( 1.0):   1.2482E-02 ->   6.3003E-03 [y]

== REACTIVE TRANSPORT ==========================================================
  0 2r: 7.66E-20 2x: 0.00E+00 2u: 0.00E+00 ir: 2.14E-20 iu: 0.00E+00 rsn:   0
  1 2r: 2.08E-25 2x: 1.00E-08 2u: 3.27E-16 ir: 3.25E-26 iu: 1.55E-17 rsn:   0
  2 2r: 1.77E-27 2x: 1.00E-08 2u: 1.34E-21 ir: 2.19E-28 iu: 1.35E-22 rsn: stol

 Step     48 Time=  4.26332E-01 Dt=  6.30025E-03 [y] conv_reason: 4
  newton =   2 [      83] linear =    13 [       569] cuts =  0 [   0]
  --> SNES Linear/Non-Linear Iterations = 13 / 2
  --> SNES Residual: 0.176990E-26 0.176990E-26 0.219303E-27
  --> max change:  dcmx=   1.5518E-17  dc/dt=   7.8105E-23 [mol/s]
 Maximum Pore Velocity:   5.8767E+01 [m/y]
 CFL Limiting ( 1.0):   1.2601E-02 ->   6.3600E-03 [y]

== REACTIVE TRANSPORT ==========================================================
  0 2r: 7.72E-20 2x: 0.00E+00 2u: 0.00E+00 ir: 2.16E-20 iu: 0.00E+00 rsn:   0
  1 2r: 2.22E-25 2x: 1.00E-08 2u: 3.32E-16 ir: 3.48E-26 iu: 1.57E-17 rsn:   0
  2 2r: 1.69E-27 2x: 1.00E-08 2u: 1.44E-21 ir: 2.38E-28 iu: 1.45E-22 rsn: stol

 Step     49 Time=  4.32692E-01 Dt=  6.36001E-03 [y] conv_reason: 4
  newton =   2 [      85] linear =    13 [       582] cuts =  0 [   0]
  --> SNES Linear/Non-Linear Iterations = 13 / 2
  --> SNES Residual: 0.169278E-26 0.169278E-26 0.238236E-27
  --> max change:  dcmx=   1.5684E-17  dc/dt=   7.8195E-23 [mol/s]
 Maximum Pore Velocity:   5.8346E+01 [m/y]
 CFL Limiting ( 1.0):   1.2720E-02 ->   6.4203E-03 [y]

== REACTIVE TRANSPORT ==========================================================
  0 2r: 7.18E-20 2x: 0.00E+00 2u: 0.00E+00 ir: 1.92E-20 iu: 0.00E+00 rsn:   0
  1 2r: 1.13E-25 2x: 1.00E-08 2u: 2.96E-16 ir: 1.86E-26 iu: 1.40E-17 rsn:   0
  2 2r: 1.74E-27 2x: 1.00E-08 2u: 6.39E-22 ir: 2.52E-28 iu: 6.94E-23 rsn: stol

 Step     50 Time=  4.38356E-01 Dt=  5.66406E-03 [y] conv_reason: 4
  newton =   2 [      87] linear =    13 [       595] cuts =  0 [   0]
  --> SNES Linear/Non-Linear Iterations = 13 / 2
  --> SNES Residual: 0.173621E-26 0.173621E-26 0.252435E-27
  --> max change:  dcmx=   1.3983E-17  dc/dt=   7.8282E-23 [mol/s]
 Maximum Pore Velocity:   5.7976E+01 [m/y]
 CFL Limiting ( 1.0):   1.1328E-02 ->   6.4741E-03 [y]

== RICHARDS FLOW ===============================================================
  0 2r: 3.72E-04 2x: 0.00E+00 2u: 0.00E+00 ir: 6.41E-05 iu: 0.00E+00 rsn:   0
  1 2r: 1.23E-05 2x: 8.53E+06 2u: 2.65E+05 ir: 8.16E-06 iu: 7.65E+03 rsn:   0
  2 2r: 1.82E-06 2x: 8.53E+06 2u: 8.53E+03 ir: 5.06E-07 iu: 5.54E+02 rsn:   0
  3 2r: 2.12E-09 2x: 8.53E+06 2u: 1.25E+02 ir: 8.86E-10 iu: 1.81E+01 rsn:   0
  4 2r: 4.09E-15 2x: 8.53E+06 2u: 2.81E-01 ir: 8.53E-16 iu: 2.10E-02 rsn: itol_upd

 Step     19 Time=  5.20548E-01 Dt=  8.21918E-02 [y] conv_reason: 11
  newton =   4 [      50] linear =   251 [      2211] cuts =  0 [   0]
  --> SNES Linear/Non-Linear Iterations = 251 / 4
  --> SNES Residual: 0.408835E-14 0.408835E-18 0.853382E-15
  --> max change: dpmx=   7.1828E+03

== REACTIVE TRANSPORT ==========================================================
  0 2r: 8.97E-20 2x: 0.00E+00 2u: 0.00E+00 ir: 1.85E-20 iu: 0.00E+00 rsn:   0
  1 2r: 6.87E-25 2x: 1.00E-08 2u: 4.10E-16 ir: 6.84E-26 iu: 1.75E-17 rsn:   0
  2 2r: 2.15E-27 2x: 1.00E-08 2u: 4.82E-21 ir: 2.05E-28 iu: 3.23E-22 rsn: stol

 Step     51 Time=  4.44830E-01 Dt=  6.47406E-03 [y] conv_reason: 4
  newton =   2 [      89] linear =    15 [       610] cuts =  0 [   0]
  --> SNES Linear/Non-Linear Iterations = 15 / 2
  --> SNES Residual: 0.214854E-26 0.214854E-26 0.205104E-27
  --> max change:  dcmx=   1.7525E-17  dc/dt=   8.5835E-23 [mol/s]
 Maximum Pore Velocity:   7.2114E+01 [m/y]
 CFL Limiting ( 1.0):   1.2948E-02 ->   5.1563E-03 [y]

== REACTIVE TRANSPORT ==========================================================
  0 2r: 7.99E-20 2x: 0.00E+00 2u: 0.00E+00 ir: 1.82E-20 iu: 0.00E+00 rsn:   0
  1 2r: 1.94E-25 2x: 1.00E-08 2u: 3.27E-16 ir: 2.20E-26 iu: 1.35E-17 rsn:   0
  2 2r: 2.17E-27 2x: 1.00E-08 2u: 1.07E-21 ir: 2.87E-28 iu: 8.16E-23 rsn: stol

 Step     52 Time=  4.49987E-01 Dt=  5.15635E-03 [y] conv_reason: 4
  newton =   2 [      91] linear =    13 [       623] cuts =  0 [   0]
  --> SNES Linear/Non-Linear Iterations = 13 / 2
  --> SNES Residual: 0.217226E-26 0.217226E-26 0.287145E-27
  --> max change:  dcmx=   1.3468E-17  dc/dt=   8.2823E-23 [mol/s]
 Maximum Pore Velocity:   7.1648E+01 [m/y]
 CFL Limiting ( 1.0):   1.0313E-02 ->   5.2013E-03 [y]

== REACTIVE TRANSPORT ==========================================================
  0 2r: 8.07E-20 2x: 0.00E+00 2u: 0.00E+00 ir: 1.89E-20 iu: 0.00E+00 rsn:   0
  1 2r: 2.24E-25 2x: 1.00E-08 2u: 3.30E-16 ir: 2.60E-26 iu: 1.34E-17 rsn:   0
  2 2r: 2.19E-27 2x: 1.00E-08 2u: 1.24E-21 ir: 2.65E-28 iu: 9.70E-23 rsn: stol

 Step     53 Time=  4.55188E-01 Dt=  5.20132E-03 [y] conv_reason: 4
  newton =   2 [      93] linear =    13 [       636] cuts =  0 [   0]
  --> SNES Linear/Non-Linear Iterations = 13 / 2
  --> SNES Residual: 0.219349E-26 0.219349E-26 0.265057E-27
  --> max change:  dcmx=   1.3443E-17  dc/dt=   8.1953E-23 [mol/s]
 Maximum Pore Velocity:   7.1184E+01 [m/y]
 CFL Limiting ( 1.0):   1.0403E-02 ->   5.2467E-03 [y]

== REACTIVE TRANSPORT ==========================================================
  0 2r: 8.13E-20 2x: 0.00E+00 2u: 0.00E+00 ir: 1.92E-20 iu: 0.00E+00 rsn:   0
  1 2r: 2.50E-25 2x: 1.00E-08 2u: 3.33E-16 ir: 2.95E-26 iu: 1.35E-17 rsn:   0
  2 2r: 2.18E-27 2x: 1.00E-08 2u: 1.40E-21 ir: 2.10E-28 iu: 1.11E-22 rsn: stol

 Step     54 Time=  4.60435E-01 Dt=  5.24668E-03 [y] conv_reason: 4
  newton =   2 [      95] linear =    13 [       649] cuts =  0 [   0]
  --> SNES Linear/Non-Linear Iterations = 13 / 2
  --> SNES Residual: 0.217655E-26 0.217655E-26 0.209837E-27
  --> max change:  dcmx=   1.3470E-17  dc/dt=   8.1412E-23 [mol/s]
 Maximum Pore Velocity:   7.0722E+01 [m/y]
 CFL Limiting ( 1.0):   1.0493E-02 ->   5.2924E-03 [y]

== REACTIVE TRANSPORT ==========================================================
  0 2r: 8.18E-20 2x: 0.00E+00 2u: 0.00E+00 ir: 1.94E-20 iu: 0.00E+00 rsn:   0
  1 2r: 2.75E-25 2x: 1.00E-08 2u: 3.37E-16 ir: 3.29E-26 iu: 1.35E-17 rsn:   0
  2 2r: 2.16E-27 2x: 1.00E-08 2u: 1.54E-21 ir: 3.90E-28 iu: 1.25E-22 rsn: stol

 Step     55 Time=  4.65727E-01 Dt=  5.29244E-03 [y] conv_reason: 4
  newton =   2 [      97] linear =    13 [       662] cuts =  0 [   0]
  --> SNES Linear/Non-Linear Iterations = 13 / 2
  --> SNES Residual: 0.216285E-26 0.216285E-26 0.389697E-27
  --> max change:  dcmx=   1.3532E-17  dc/dt=   8.1080E-23 [mol/s]
 Maximum Pore Velocity:   7.0262E+01 [m/y]
 CFL Limiting ( 1.0):   1.0585E-02 ->   5.3386E-03 [y]

== REACTIVE TRANSPORT ==========================================================
  0 2r: 8.23E-20 2x: 0.00E+00 2u: 0.00E+00 ir: 1.96E-20 iu: 0.00E+00 rsn:   0
  1 2r: 2.99E-25 2x: 1.00E-08 2u: 3.40E-16 ir: 3.61E-26 iu: 1.36E-17 rsn:   0
  2 2r: 2.15E-27 2x: 1.00E-08 2u: 1.68E-21 ir: 3.68E-28 iu: 1.39E-22 rsn: stol

 Step     56 Time=  4.71066E-01 Dt=  5.33859E-03 [y] conv_reason: 4
  newton =   2 [      99] linear =    13 [       675] cuts =  0 [   0]
  --> SNES Linear/Non-Linear Iterations = 13 / 2
  --> SNES Residual: 0.214501E-26 0.214501E-26 0.367609E-27
  --> max change:  dcmx=   1.3617E-17  dc/dt=   8.0882E-23 [mol/s]
 Maximum Pore Velocity:   6.9804E+01 [m/y]
 CFL Limiting ( 1.0):   1.0677E-02 ->   5.3852E-03 [y]

== REACTIVE TRANSPORT ==========================================================
  0 2r: 8.27E-20 2x: 0.00E+00 2u: 0.00E+00 ir: 1.98E-20 iu: 0.00E+00 rsn:   0
  1 2r: 3.23E-25 2x: 1.00E-08 2u: 3.43E-16 ir: 3.95E-26 iu: 1.37E-17 rsn:   0
  2 2r: 2.20E-27 2x: 1.00E-08 2u: 1.83E-21 ir: 2.90E-28 iu: 1.53E-22 rsn: stol

 Step     57 Time=  4.76451E-01 Dt=  5.38515E-03 [y] conv_reason: 4
  newton =   2 [     101] linear =    13 [       688] cuts =  0 [   0]
  --> SNES Linear/Non-Linear Iterations = 13 / 2
  --> SNES Residual: 0.219560E-26 0.219560E-26 0.290301E-27
  --> max change:  dcmx=   1.3717E-17  dc/dt=   8.0770E-23 [mol/s]
 Maximum Pore Velocity:   6.9348E+01 [m/y]
 CFL Limiting ( 1.0):   1.0770E-02 ->   5.4321E-03 [y]

== REACTIVE TRANSPORT ==========================================================
  0 2r: 8.32E-20 2x: 0.00E+00 2u: 0.00E+00 ir: 2.00E-20 iu: 0.00E+00 rsn:   0
  1 2r: 3.47E-25 2x: 1.00E-08 2u: 3.47E-16 ir: 4.29E-26 iu: 1.38E-17 rsn:   0
  2 2r: 2.19E-27 2x: 1.00E-08 2u: 1.98E-21 ir: 3.44E-28 iu: 1.67E-22 rsn: stol

 Step     58 Time=  4.81883E-01 Dt=  5.43212E-03 [y] conv_reason: 4
  newton =   2 [     103] linear =    13 [       701] cuts =  0 [   0]
  --> SNES Linear/Non-Linear Iterations = 13 / 2
  --> SNES Residual: 0.218780E-26 0.218780E-26 0.343943E-27
  --> max change:  dcmx=   1.3826E-17  dc/dt=   8.0709E-23 [mol/s]
 Maximum Pore Velocity:   6.8894E+01 [m/y]
 CFL Limiting ( 1.0):   1.0864E-02 ->   5.4795E-03 [y]

== REACTIVE TRANSPORT ==========================================================
  0 2r: 8.37E-20 2x: 0.00E+00 2u: 0.00E+00 ir: 2.01E-20 iu: 0.00E+00 rsn:   0
  1 2r: 3.73E-25 2x: 1.00E-08 2u: 3.50E-16 ir: 4.63E-26 iu: 1.39E-17 rsn:   0
  2 2r: 2.21E-27 2x: 1.00E-08 2u: 2.13E-21 ir: 4.75E-28 iu: 1.82E-22 rsn: stol

 Step     59 Time=  4.87362E-01 Dt=  5.47949E-03 [y] conv_reason: 4
  newton =   2 [     105] linear =    13 [       714] cuts =  0 [   0]
  --> SNES Linear/Non-Linear Iterations = 13 / 2
  --> SNES Residual: 0.220904E-26 0.220904E-26 0.474894E-27
  --> max change:  dcmx=   1.3942E-17  dc/dt=   8.0682E-23 [mol/s]
 Maximum Pore Velocity:   6.8442E+01 [m/y]
 CFL Limiting ( 1.0):   1.0959E-02 ->   5.5273E-03 [y]

== REACTIVE TRANSPORT ==========================================================
  0 2r: 8.42E-20 2x: 0.00E+00 2u: 0.00E+00 ir: 2.03E-20 iu: 0.00E+00 rsn:   0
  1 2r: 3.99E-25 2x: 1.00E-08 2u: 3.54E-16 ir: 4.99E-26 iu: 1.41E-17 rsn:   0
  2 2r: 2.18E-27 2x: 1.00E-08 2u: 2.30E-21 ir: 2.76E-28 iu: 1.98E-22 rsn: stol

 Step     60 Time=  4.92890E-01 Dt=  5.52728E-03 [y] conv_reason: 4
  newton =   2 [     107] linear =    13 [       727] cuts =  0 [   0]
  --> SNES Linear/Non-Linear Iterations = 13 / 2
  --> SNES Residual: 0.217641E-26 0.217641E-26 0.276101E-27
  --> max change:  dcmx=   1.4072E-17  dc/dt=   8.0730E-23 [mol/s]
 Maximum Pore Velocity:   6.7992E+01 [m/y]
 CFL Limiting ( 1.0):   1.1055E-02 ->   5.5755E-03 [y]

== REACTIVE TRANSPORT ==========================================================
  0 2r: 8.47E-20 2x: 0.00E+00 2u: 0.00E+00 ir: 2.05E-20 iu: 0.00E+00 rsn:   0
  1 2r: 4.27E-25 2x: 1.00E-08 2u: 3.58E-16 ir: 5.37E-26 iu: 1.42E-17 rsn:   0
  2 2r: 2.15E-27 2x: 1.00E-08 2u: 2.47E-21 ir: 1.89E-28 iu: 2.14E-22 rsn: stol

 Step     61 Time=  4.98465E-01 Dt=  5.57548E-03 [y] conv_reason: 4
  newton =   2 [     109] linear =    13 [       740] cuts =  0 [   0]
  --> SNES Linear/Non-Linear Iterations = 13 / 2
  --> SNES Residual: 0.214929E-26 0.214929E-26 0.189327E-27
  --> max change:  dcmx=   1.4205E-17  dc/dt=   8.0791E-23 [mol/s]
 Maximum Pore Velocity:   6.7544E+01 [m/y]
 CFL Limiting ( 1.0):   1.1151E-02 ->   5.6241E-03 [y]

== REACTIVE TRANSPORT ==========================================================
  0 2r: 8.52E-20 2x: 0.00E+00 2u: 0.00E+00 ir: 2.07E-20 iu: 0.00E+00 rsn:   0
  1 2r: 4.56E-25 2x: 1.00E-08 2u: 3.61E-16 ir: 5.76E-26 iu: 1.43E-17 rsn:   0
  2 2r: 2.24E-27 2x: 1.00E-08 2u: 2.66E-21 ir: 2.52E-28 iu: 2.32E-22 rsn: stol

 Step     62 Time=  5.04089E-01 Dt=  5.62411E-03 [y] conv_reason: 4
  newton =   2 [     111] linear =    13 [       753] cuts =  0 [   0]
  --> SNES Linear/Non-Linear Iterations = 13 / 2
  --> SNES Residual: 0.224290E-26 0.224290E-26 0.252435E-27
  --> max change:  dcmx=   1.4340E-17  dc/dt=   8.0851E-23 [mol/s]
 Maximum Pore Velocity:   6.7098E+01 [m/y]
 CFL Limiting ( 1.0):   1.1248E-02 ->   5.6732E-03 [y]

== REACTIVE TRANSPORT ==========================================================
  0 2r: 8.57E-20 2x: 0.00E+00 2u: 0.00E+00 ir: 2.08E-20 iu: 0.00E+00 rsn:   0
  1 2r: 4.87E-25 2x: 1.00E-08 2u: 3.65E-16 ir: 6.18E-26 iu: 1.45E-17 rsn:   0
  2 2r: 2.24E-27 2x: 1.00E-08 2u: 2.85E-21 ir: 1.96E-28 iu: 2.50E-22 rsn: stol

 Step     63 Time=  5.09762E-01 Dt=  5.67316E-03 [y] conv_reason: 4
  newton =   2 [     113] linear =    13 [       766] cuts =  0 [   0]
  --> SNES Linear/Non-Linear Iterations = 13 / 2
  --> SNES Residual: 0.224385E-26 0.224385E-26 0.195638E-27
  --> max change:  dcmx=   1.4475E-17  dc/dt=   8.0910E-23 [mol/s]
 Maximum Pore Velocity:   6.6654E+01 [m/y]
 CFL Limiting ( 1.0):   1.1346E-02 ->   5.7226E-03 [y]

== REACTIVE TRANSPORT ==========================================================
  0 2r: 8.62E-20 2x: 0.00E+00 2u: 0.00E+00 ir: 2.10E-20 iu: 0.00E+00 rsn:   0
  1 2r: 5.20E-25 2x: 1.00E-08 2u: 3.69E-16 ir: 6.62E-26 iu: 1.46E-17 rsn:   0
  2 2r: 2.21E-27 2x: 1.00E-08 2u: 3.06E-21 ir: 2.30E-28 iu: 2.70E-22 rsn: stol

 Step     64 Time=  5.15485E-01 Dt=  5.72263E-03 [y] conv_reason: 4
  newton =   2 [     115] linear =    13 [       779] cuts =  0 [   0]
  --> SNES Linear/Non-Linear Iterations = 13 / 2
  --> SNES Residual: 0.220949E-26 0.220949E-26 0.230347E-27
  --> max change:  dcmx=   1.4612E-17  dc/dt=   8.0967E-23 [mol/s]
 Maximum Pore Velocity:   6.6212E+01 [m/y]
 CFL Limiting ( 1.0):   1.1445E-02 ->   5.7725E-03 [y]

== REACTIVE TRANSPORT ==========================================================
  0 2r: 8.04E-20 2x: 0.00E+00 2u: 0.00E+00 ir: 1.86E-20 iu: 0.00E+00 rsn:   0
  1 2r: 2.57E-25 2x: 1.00E-08 2u: 3.27E-16 ir: 3.51E-26 iu: 1.29E-17 rsn:   0
  2 2r: 2.13E-27 2x: 1.00E-08 2u: 1.32E-21 ir: 4.29E-28 iu: 1.24E-22 rsn: stol

 Step     65 Time=  5.20548E-01 Dt=  5.06292E-03 [y] conv_reason: 4
  newton =   2 [     117] linear =    13 [       792] cuts =  0 [   0]
  --> SNES Linear/Non-Linear Iterations = 13 / 2
  --> SNES Residual: 0.212634E-26 0.212634E-26 0.429140E-27
  --> max change:  dcmx=   1.2936E-17  dc/dt=   8.1018E-23 [mol/s]
 Maximum Pore Velocity:   6.5826E+01 [m/y]
 CFL Limiting ( 1.0):   1.0126E-02 ->   5.8167E-03 [y]

== RICHARDS FLOW ===============================================================
  0 2r: 1.25E-04 2x: 0.00E+00 2u: 0.00E+00 ir: 2.34E-05 iu: 0.00E+00 rsn:   0
  1 2r: 4.19E-06 2x: 8.61E+06 2u: 9.15E+04 ir: 2.94E-06 iu: 2.41E+03 rsn:   0
  2 2r: 9.12E-10 2x: 8.61E+06 2u: 1.16E+03 ir: 3.25E-10 iu: 8.26E+01 rsn:   0
  3 2r: 1.13E-13 2x: 8.61E+06 2u: 2.61E+00 ir: 5.83E-15 iu: 2.93E-01 rsn: itol_upd

 Step     20 Time=  5.47945E-01 Dt=  2.73973E-02 [y] conv_reason: 11
  newton =   3 [      53] linear =   166 [      2377] cuts =  0 [   0]
  --> SNES Linear/Non-Linear Iterations = 166 / 3
  --> SNES Residual: 0.113275E-12 0.113275E-16 0.582541E-14
  --> max change: dpmx=   2.3323E+03

== REACTIVE TRANSPORT ==========================================================
  0 2r: 2.08E-19 2x: 0.00E+00 2u: 0.00E+00 ir: 7.74E-20 iu: 0.00E+00 rsn:   0
  1 2r: 7.33E-25 2x: 1.00E-08 2u: 4.03E-16 ir: 8.62E-26 iu: 1.55E-17 rsn:   0
  2 2r: 2.37E-27 2x: 1.00E-08 2u: 4.49E-21 ir: 2.79E-28 iu: 3.77E-22 rsn: stol

 Step     66 Time=  5.26365E-01 Dt=  5.81670E-03 [y] conv_reason: 4
  newton =   2 [     119] linear =    14 [       806] cuts =  0 [   0]
  --> SNES Linear/Non-Linear Iterations = 14 / 2
  --> SNES Residual: 0.237230E-26 0.237230E-26 0.279257E-27
  --> max change:  dcmx=   1.5533E-17  dc/dt=   8.4678E-23 [mol/s]
 Maximum Pore Velocity:   7.0643E+01 [m/y]
 CFL Limiting ( 1.0):   1.1633E-02 ->   5.0038E-03 [y]

== REACTIVE TRANSPORT ==========================================================
  0 2r: 1.87E-19 2x: 0.00E+00 2u: 0.00E+00 ir: 6.54E-20 iu: 0.00E+00 rsn:   0
  1 2r: 3.30E-25 2x: 1.00E-08 2u: 3.48E-16 ir: 4.23E-26 iu: 1.31E-17 rsn:   0
  2 2r: 2.42E-27 2x: 1.00E-08 2u: 1.72E-21 ir: 3.57E-28 iu: 1.57E-22 rsn: stol

 Step     67 Time=  5.31368E-01 Dt=  5.00381E-03 [y] conv_reason: 4
  newton =   2 [     121] linear =    13 [       819] cuts =  0 [   0]
  --> SNES Linear/Non-Linear Iterations = 13 / 2
  --> SNES Residual: 0.242118E-26 0.242118E-26 0.356565E-27
  --> max change:  dcmx=   1.3102E-17  dc/dt=   8.3027E-23 [mol/s]
 Maximum Pore Velocity:   7.0578E+01 [m/y]
 CFL Limiting ( 1.0):   1.0008E-02 ->   5.0201E-03 [y]

== REACTIVE TRANSPORT ==========================================================
  0 2r: 1.88E-19 2x: 0.00E+00 2u: 0.00E+00 ir: 6.54E-20 iu: 0.00E+00 rsn:   0
  1 2r: 3.49E-25 2x: 1.00E-08 2u: 3.49E-16 ir: 4.52E-26 iu: 1.31E-17 rsn:   0
  2 2r: 2.32E-27 2x: 1.00E-08 2u: 1.81E-21 ir: 2.37E-28 iu: 1.68E-22 rsn: stol

 Step     68 Time=  5.36389E-01 Dt=  5.02006E-03 [y] conv_reason: 4
  newton =   2 [     123] linear =    13 [       832] cuts =  0 [   0]
  --> SNES Linear/Non-Linear Iterations = 13 / 2
  --> SNES Residual: 0.231983E-26 0.231983E-26 0.236658E-27
  --> max change:  dcmx=   1.3087E-17  dc/dt=   8.2665E-23 [mol/s]
 Maximum Pore Velocity:   7.0513E+01 [m/y]
 CFL Limiting ( 1.0):   1.0040E-02 ->   5.0364E-03 [y]

== REACTIVE TRANSPORT ==========================================================
  0 2r: 1.88E-19 2x: 0.00E+00 2u: 0.00E+00 ir: 6.56E-20 iu: 0.00E+00 rsn:   0
  1 2r: 3.70E-25 2x: 1.00E-08 2u: 3.51E-16 ir: 4.83E-26 iu: 1.31E-17 rsn:   0
  2 2r: 2.41E-27 2x: 1.00E-08 2u: 1.92E-21 ir: 4.86E-28 iu: 1.78E-22 rsn: stol

 Step     69 Time=  5.41425E-01 Dt=  5.03635E-03 [y] conv_reason: 4
  newton =   2 [     125] linear =    13 [       845] cuts =  0 [   0]
  --> SNES Linear/Non-Linear Iterations = 13 / 2
  --> SNES Residual: 0.240700E-26 0.240700E-26 0.485938E-27
  --> max change:  dcmx=   1.3081E-17  dc/dt=   8.2358E-23 [mol/s]
 Maximum Pore Velocity:   7.0448E+01 [m/y]
 CFL Limiting ( 1.0):   1.0073E-02 ->   5.0527E-03 [y]

== REACTIVE TRANSPORT ==========================================================
  0 2r: 1.89E-19 2x: 0.00E+00 2u: 0.00E+00 ir: 6.58E-20 iu: 0.00E+00 rsn:   0
  1 2r: 3.90E-25 2x: 1.00E-08 2u: 3.53E-16 ir: 5.11E-26 iu: 1.31E-17 rsn:   0
  2 2r: 2.41E-27 2x: 1.00E-08 2u: 2.02E-21 ir: 4.76E-28 iu: 1.89E-22 rsn: stol

 Step     70 Time=  5.46478E-01 Dt=  5.05270E-03 [y] conv_reason: 4
  newton =   2 [     127] linear =    13 [       858] cuts =  0 [   0]
  --> SNES Linear/Non-Linear Iterations = 13 / 2
  --> SNES Residual: 0.241251E-26 0.241251E-26 0.476472E-27
  --> max change:  dcmx=   1.3081E-17  dc/dt=   8.2095E-23 [mol/s]
 Maximum Pore Velocity:   7.0383E+01 [m/y]
 CFL Limiting ( 1.0):   1.0105E-02 ->   5.0691E-03 [y]

== REACTIVE TRANSPORT ==========================================================
  0 2r: 7.85E-20 2x: 0.00E+00 2u: 0.00E+00 ir: 2.04E-20 iu: 0.00E+00 rsn:   0
  1 2r: 4.64E-25 2x: 1.00E-08 2u: 1.02E-16 ir: 4.98E-26 iu: 3.80E-18 rsn:   0
  2 2r: 2.32E-27 2x: 1.00E-08 2u: 3.74E-22 ir: 2.71E-28 iu: 4.11E-23 rsn: stol

 Step     71 Time=  5.47945E-01 Dt=  1.46764E-03 [y] conv_reason: 4
  newton =   2 [     129] linear =     8 [       866] cuts =  0 [   0]
  --> SNES Linear/Non-Linear Iterations = 8 / 2
  --> SNES Residual: 0.231757E-26 0.231757E-26 0.271368E-27
  --> max change:  dcmx=   3.7963E-18  dc/dt=   8.2022E-23 [mol/s]
 Maximum Pore Velocity:   7.0364E+01 [m/y]

 --> appending to hdf5 output file: 2D_solute.h5
      0.04 Seconds to write HDF5 file.

== RICHARDS FLOW ===============================================================
  0 2r: 1.24E-04 2x: 0.00E+00 2u: 0.00E+00 ir: 2.03E-05 iu: 0.00E+00 rsn:   0
  1 2r: 8.91E-06 2x: 8.70E+06 2u: 1.52E+05 ir: 8.47E-06 iu: 5.17E+03 rsn:   0
  2 2r: 4.22E-07 2x: 8.70E+06 2u: 9.59E+03 ir: 2.93E-07 iu: 4.89E+02 rsn:   0
  3 2r: 1.52E-10 2x: 8.70E+06 2u: 1.20E+02 ir: 1.08E-10 iu: 8.14E+00 rsn:   0
  4 2r: 1.39E-15 2x: 8.70E+06 2u: 2.05E-01 ir: 5.71E-17 iu: 4.39E-03 rsn: itol_upd

 Step     21 Time=  6.30137E-01 Dt=  8.21918E-02 [y] conv_reason: 11
  newton =   4 [      57] linear =   233 [      2610] cuts =  0 [   0]
  --> SNES Linear/Non-Linear Iterations = 233 / 4
  --> SNES Residual: 0.139436E-14 0.139436E-18 0.570802E-16
  --> max change: dpmx=   4.7192E+03

== REACTIVE TRANSPORT ==========================================================
  0 2r: 3.82E-20 2x: 0.00E+00 2u: 0.00E+00 ir: 8.66E-21 iu: 0.00E+00 rsn:   0
  1 2r: 3.47E-25 2x: 1.00E-08 2u: 1.64E-16 ir: 4.10E-26 iu: 5.44E-18 rsn:   0
  2 2r: 1.38E-27 2x: 1.00E-08 2u: 1.36E-21 ir: 1.51E-28 iu: 7.96E-23 rsn: stol

 Step     72 Time=  5.53014E-01 Dt=  5.06911E-03 [y] conv_reason: 4
  newton =   2 [     131] linear =    10 [       876] cuts =  0 [   0]
  --> SNES Linear/Non-Linear Iterations = 10 / 2
  --> SNES Residual: 0.137813E-26 0.137813E-26 0.151461E-27
  --> max change:  dcmx=   5.4403E-18  dc/dt=   3.4032E-23 [mol/s]
 Maximum Pore Velocity:   2.7518E+01 [m/y]

== REACTIVE TRANSPORT ==========================================================
  0 2r: 6.12E-20 2x: 0.00E+00 2u: 0.00E+00 ir: 1.66E-20 iu: 0.00E+00 rsn:   0
  1 2r: 5.01E-25 2x: 1.00E-08 2u: 3.11E-16 ir: 3.61E-26 iu: 1.03E-17 rsn:   0
  2 2r: 1.36E-27 2x: 1.00E-08 2u: 4.85E-21 ir: 1.18E-28 iu: 2.46E-22 rsn: stol

 Step     73 Time=  5.63153E-01 Dt=  1.01382E-02 [y] conv_reason: 4
  newton =   2 [     133] linear =    13 [       889] cuts =  0 [   0]
  --> SNES Linear/Non-Linear Iterations = 13 / 2
  --> SNES Residual: 0.135591E-26 0.135591E-26 0.118329E-27
  --> max change:  dcmx=   1.0255E-17  dc/dt=   3.2075E-23 [mol/s]
 Maximum Pore Velocity:   2.7518E+01 [m/y]
 CFL Limiting ( 1.0):   2.0276E-02 ->   1.7397E-02 [y]

== REACTIVE TRANSPORT ==========================================================
  0 2r: 9.73E-20 2x: 0.00E+00 2u: 0.00E+00 ir: 2.78E-20 iu: 0.00E+00 rsn:   0
  1 2r: 4.29E-25 2x: 1.00E-08 2u: 5.12E-16 ir: 2.36E-26 iu: 1.69E-17 rsn:   0
  2 2r: 1.37E-27 2x: 1.00E-08 2u: 8.14E-21 ir: 1.15E-28 iu: 3.77E-22 rsn: stol

 Step     74 Time=  5.80549E-01 Dt=  1.73967E-02 [y] conv_reason: 4
  newton =   2 [     135] linear =    16 [       905] cuts =  0 [   0]
  --> SNES Linear/Non-Linear Iterations = 16 / 2
  --> SNES Residual: 0.137195E-26 0.137195E-26 0.115174E-27
  --> max change:  dcmx=   1.6909E-17  dc/dt=   3.0821E-23 [mol/s]
 Maximum Pore Velocity:   2.7518E+01 [m/y]
 CFL Limiting ( 1.0):   3.4793E-02 ->   1.7383E-02 [y]

== REACTIVE TRANSPORT ==========================================================
  0 2r: 9.70E-20 2x: 0.00E+00 2u: 0.00E+00 ir: 2.77E-20 iu: 0.00E+00 rsn:   0
  1 2r: 4.01E-25 2x: 1.00E-08 2u: 4.99E-16 ir: 2.29E-26 iu: 1.63E-17 rsn:   0
  2 2r: 1.38E-27 2x: 1.00E-08 2u: 7.75E-21 ir: 1.33E-28 iu: 3.39E-22 rsn: stol

 Step     75 Time=  5.97932E-01 Dt=  1.73829E-02 [y] conv_reason: 4
  newton =   2 [     137] linear =    16 [       921] cuts =  0 [   0]
  --> SNES Linear/Non-Linear Iterations = 16 / 2
  --> SNES Residual: 0.137929E-26 0.137929E-26 0.133317E-27
  --> max change:  dcmx=   1.6335E-17  dc/dt=   2.9797E-23 [mol/s]
 Maximum Pore Velocity:   2.7518E+01 [m/y]
 CFL Limiting ( 1.0):   3.4766E-02 ->   1.7369E-02 [y]

== REACTIVE TRANSPORT ==========================================================
  0 2r: 9.68E-20 2x: 0.00E+00 2u: 0.00E+00 ir: 2.77E-20 iu: 0.00E+00 rsn:   0
  1 2r: 4.16E-25 2x: 1.00E-08 2u: 4.90E-16 ir: 2.58E-26 iu: 1.58E-17 rsn:   0
  2 2r: 1.38E-27 2x: 1.00E-08 2u: 8.09E-21 ir: 1.15E-28 iu: 3.57E-22 rsn: stol

 Step     76 Time=  6.15301E-01 Dt=  1.73691E-02 [y] conv_reason: 4
  newton =   2 [     139] linear =    17 [       938] cuts =  0 [   0]
  --> SNES Linear/Non-Linear Iterations = 17 / 2
  --> SNES Residual: 0.137634E-26 0.137634E-26 0.115174E-27
  --> max change:  dcmx=   1.5823E-17  dc/dt=   2.8887E-23 [mol/s]
 Maximum Pore Velocity:   2.7518E+01 [m/y]
 CFL Limiting ( 1.0):   3.4738E-02 ->   1.7355E-02 [y]

== REACTIVE TRANSPORT ==========================================================
  0 2r: 8.37E-20 2x: 0.00E+00 2u: 0.00E+00 ir: 2.37E-20 iu: 0.00E+00 rsn:   0
  1 2r: 1.91E-25 2x: 1.00E-08 2u: 4.15E-16 ir: 1.43E-26 iu: 1.32E-17 rsn:   0
  2 2r: 1.38E-27 2x: 1.00E-08 2u: 3.14E-21 ir: 1.22E-28 iu: 1.56E-22 rsn: stol

 Step     77 Time=  6.30137E-01 Dt=  1.48358E-02 [y] conv_reason: 4
  newton =   2 [     141] linear =    16 [       954] cuts =  0 [   0]
  --> SNES Linear/Non-Linear Iterations = 16 / 2
  --> SNES Residual: 0.137568E-26 0.137568E-26 0.122273E-27
  --> max change:  dcmx=   1.3197E-17  dc/dt=   2.8206E-23 [mol/s]
 Maximum Pore Velocity:   2.7518E+01 [m/y]
 CFL Limiting ( 1.0):   2.9672E-02 ->   1.7343E-02 [y]

== RICHARDS FLOW ===============================================================
  0 2r: 3.51E-04 2x: 0.00E+00 2u: 0.00E+00 ir: 6.08E-05 iu: 0.00E+00 rsn:   0
  1 2r: 4.21E-05 2x: 8.67E+06 2u: 1.36E+05 ir: 2.18E-05 iu: 4.71E+03 rsn:   0
  2 2r: 8.58E-06 2x: 8.67E+06 2u: 1.18E+04 ir: 4.26E-06 iu: 1.11E+03 rsn:   0
  3 2r: 3.48E-07 2x: 8.67E+06 2u: 7.33E+02 ir: 2.00E-07 iu: 1.81E+02 rsn:   0
  4 2r: 2.89E-10 2x: 8.67E+06 2u: 1.06E+01 ir: 2.15E-10 iu: 4.15E+00 rsn:   0
  5 2r: 5.18E-16 2x: 8.67E+06 2u: 4.72E-02 ir: 1.35E-16 iu: 2.41E-03 rsn: itol_upd

[...]
  --> SNES Residual: 0.138263E-15 0.138263E-15 0.136542E-16
  --> max change:  dcmx=   5.4742E-04  dc/dt=   5.9135E-09 [mol/s]
 Maximum Pore Velocity:   8.4986E+01 [m/y]
 CFL Limiting ( 1.0):   5.8707E-03 ->   2.9353E-03 [y]

== REACTIVE TRANSPORT ==========================================================
  0 2r: 5.95E-06 2x: 0.00E+00 2u: 0.00E+00 ir: 1.47E-07 iu: 0.00E+00 rsn:   0
  1 2r: 2.62E-11 2x: 4.48E+01 2u: 2.37E-02 ir: 5.53E-12 iu: 5.46E-04 rsn:   0
  2 2r: 1.61E-16 2x: 4.48E+01 2u: 7.84E-08 ir: 1.55E-17 iu: 1.07E-08 rsn: rtol

 Step   2478 Time=  1.48599E+01 Dt=  2.93532E-03 [y] conv_reason: 3
  newton =   2 [    4881] linear =    12 [     27668] cuts =  0 [   0]
  --> SNES Linear/Non-Linear Iterations = 12 / 2
  --> SNES Residual: 0.161048E-15 0.161048E-15 0.155312E-16
  --> max change:  dcmx=   5.4622E-04  dc/dt=   5.9008E-09 [mol/s]
 Maximum Pore Velocity:   8.4986E+01 [m/y]
 CFL Limiting ( 1.0):   5.8706E-03 ->   2.9353E-03 [y]

== REACTIVE TRANSPORT ==========================================================
  0 2r: 5.93E-06 2x: 0.00E+00 2u: 0.00E+00 ir: 1.47E-07 iu: 0.00E+00 rsn:   0
  1 2r: 2.63E-11 2x: 4.48E+01 2u: 2.37E-02 ir: 5.57E-12 iu: 5.45E-04 rsn:   0
  2 2r: 1.14E-16 2x: 4.48E+01 2u: 7.88E-08 ir: 1.79E-17 iu: 1.08E-08 rsn: rtol

 Step   2479 Time=  1.48628E+01 Dt=  2.93527E-03 [y] conv_reason: 3
  newton =   2 [    4883] linear =    13 [     27681] cuts =  0 [   0]
  --> SNES Linear/Non-Linear Iterations = 13 / 2
  --> SNES Residual: 0.113869E-15 0.113869E-15 0.179435E-16
  --> max change:  dcmx=   5.4489E-04  dc/dt=   5.8864E-09 [mol/s]
 Maximum Pore Velocity:   8.4986E+01 [m/y]
 CFL Limiting ( 1.0):   5.8705E-03 ->   2.9352E-03 [y]

== REACTIVE TRANSPORT ==========================================================
  0 2r: 5.91E-06 2x: 0.00E+00 2u: 0.00E+00 ir: 1.47E-07 iu: 0.00E+00 rsn:   0
  1 2r: 2.65E-11 2x: 4.48E+01 2u: 2.37E-02 ir: 5.60E-12 iu: 5.43E-04 rsn:   0
  2 2r: 1.72E-16 2x: 4.48E+01 2u: 7.93E-08 ir: 2.54E-17 iu: 1.08E-08 rsn: rtol

 Step   2480 Time=  1.48658E+01 Dt=  2.93522E-03 [y] conv_reason: 3
  newton =   2 [    4885] linear =    13 [     27694] cuts =  0 [   0]
  --> SNES Linear/Non-Linear Iterations = 13 / 2
  --> SNES Residual: 0.172107E-15 0.172107E-15 0.253907E-16
  --> max change:  dcmx=   5.4343E-04  dc/dt=   5.8708E-09 [mol/s]
 Maximum Pore Velocity:   8.4986E+01 [m/y]
 CFL Limiting ( 1.0):   5.8704E-03 ->   2.9352E-03 [y]

== REACTIVE TRANSPORT ==========================================================
  0 2r: 5.89E-06 2x: 0.00E+00 2u: 0.00E+00 ir: 1.46E-07 iu: 0.00E+00 rsn:   0
  1 2r: 2.66E-11 2x: 4.48E+01 2u: 2.36E-02 ir: 5.63E-12 iu: 5.42E-04 rsn:   0
  2 2r: 8.83E-18 2x: 4.48E+01 2u: 7.98E-08 ir: 6.78E-19 iu: 1.09E-08 rsn: rtol

 Step   2481 Time=  1.48687E+01 Dt=  2.93517E-03 [y] conv_reason: 3
  newton =   2 [    4887] linear =    14 [     27708] cuts =  0 [   0]
  --> SNES Linear/Non-Linear Iterations = 14 / 2
  --> SNES Residual: 0.882729E-17 0.882729E-17 0.677626E-18
  --> max change:  dcmx=   5.4187E-04  dc/dt=   5.8540E-09 [mol/s]
 Maximum Pore Velocity:   8.4986E+01 [m/y]
 CFL Limiting ( 1.0):   5.8703E-03 ->   2.9351E-03 [y]

== REACTIVE TRANSPORT ==========================================================
  0 2r: 5.87E-06 2x: 0.00E+00 2u: 0.00E+00 ir: 1.46E-07 iu: 0.00E+00 rsn:   0
  1 2r: 2.68E-11 2x: 4.48E+01 2u: 2.36E-02 ir: 5.67E-12 iu: 5.40E-04 rsn:   0
  2 2r: 8.61E-18 2x: 4.48E+01 2u: 8.03E-08 ir: 6.78E-19 iu: 1.10E-08 rsn: rtol

 Step   2482 Time=  1.48716E+01 Dt=  2.93511E-03 [y] conv_reason: 3
  newton =   2 [    4889] linear =    14 [     27722] cuts =  0 [   0]
  --> SNES Linear/Non-Linear Iterations = 14 / 2
  --> SNES Residual: 0.861129E-17 0.861129E-17 0.677626E-18
  --> max change:  dcmx=   5.4022E-04  dc/dt=   5.8364E-09 [mol/s]
 Maximum Pore Velocity:   8.4986E+01 [m/y]
 CFL Limiting ( 1.0):   5.8702E-03 ->   2.9351E-03 [y]

== REACTIVE TRANSPORT ==========================================================
  0 2r: 5.85E-06 2x: 0.00E+00 2u: 0.00E+00 ir: 1.45E-07 iu: 0.00E+00 rsn:   0
  1 2r: 2.69E-11 2x: 4.49E+01 2u: 2.36E-02 ir: 5.70E-12 iu: 5.39E-04 rsn:   0
  2 2r: 8.23E-18 2x: 4.49E+01 2u: 8.07E-08 ir: 6.98E-19 iu: 1.10E-08 rsn: rtol

 Step   2483 Time=  1.48746E+01 Dt=  2.93506E-03 [y] conv_reason: 3
  newton =   2 [    4891] linear =    14 [     27736] cuts =  0 [   0]
  --> SNES Linear/Non-Linear Iterations = 14 / 2
  --> SNES Residual: 0.822581E-17 0.822581E-17 0.697955E-18
  --> max change:  dcmx=   5.3852E-04  dc/dt=   5.8180E-09 [mol/s]
 Maximum Pore Velocity:   8.4986E+01 [m/y]
 CFL Limiting ( 1.0):   5.8701E-03 ->   2.9350E-03 [y]

== REACTIVE TRANSPORT ==========================================================
  0 2r: 5.83E-06 2x: 0.00E+00 2u: 0.00E+00 ir: 1.45E-07 iu: 0.00E+00 rsn:   0
  1 2r: 2.71E-11 2x: 4.49E+01 2u: 2.35E-02 ir: 5.74E-12 iu: 5.37E-04 rsn:   0
  2 2r: 1.39E-16 2x: 4.49E+01 2u: 8.12E-08 ir: 2.24E-17 iu: 1.11E-08 rsn: rtol

 Step   2484 Time=  1.48775E+01 Dt=  2.93501E-03 [y] conv_reason: 3
  newton =   2 [    4893] linear =    12 [     27748] cuts =  0 [   0]
  --> SNES Linear/Non-Linear Iterations = 12 / 2
  --> SNES Residual: 0.139166E-15 0.139166E-15 0.223583E-16
  --> max change:  dcmx=   5.3676E-04  dc/dt=   5.7992E-09 [mol/s]
 Maximum Pore Velocity:   8.4986E+01 [m/y]
 CFL Limiting ( 1.0):   5.8700E-03 ->   2.9350E-03 [y]

== REACTIVE TRANSPORT ==========================================================
  0 2r: 5.82E-06 2x: 0.00E+00 2u: 0.00E+00 ir: 1.45E-07 iu: 0.00E+00 rsn:   0
  1 2r: 2.73E-11 2x: 4.49E+01 2u: 2.35E-02 ir: 5.77E-12 iu: 5.35E-04 rsn:   0
  2 2r: 1.54E-16 2x: 4.49E+01 2u: 8.17E-08 ir: 2.36E-17 iu: 1.11E-08 rsn: rtol

 Step   2485 Time=  1.48804E+01 Dt=  2.93496E-03 [y] conv_reason: 3
  newton =   2 [    4895] linear =    12 [     27760] cuts =  0 [   0]
  --> SNES Linear/Non-Linear Iterations = 12 / 2
  --> SNES Residual: 0.153888E-15 0.153888E-15 0.235814E-16
  --> max change:  dcmx=   5.3497E-04  dc/dt=   5.7799E-09 [mol/s]
 Maximum Pore Velocity:   8.4986E+01 [m/y]
 CFL Limiting ( 1.0):   5.8699E-03 ->   2.9349E-03 [y]

== REACTIVE TRANSPORT ==========================================================
  0 2r: 5.80E-06 2x: 0.00E+00 2u: 0.00E+00 ir: 1.44E-07 iu: 0.00E+00 rsn:   0
  1 2r: 2.74E-11 2x: 4.49E+01 2u: 2.35E-02 ir: 5.81E-12 iu: 5.33E-04 rsn:   0
  2 2r: 2.00E-16 2x: 4.49E+01 2u: 8.22E-08 ir: 2.77E-17 iu: 1.12E-08 rsn: rtol

 Step   2486 Time=  1.48834E+01 Dt=  2.93491E-03 [y] conv_reason: 3
  newton =   2 [    4897] linear =    12 [     27772] cuts =  0 [   0]
  --> SNES Linear/Non-Linear Iterations = 12 / 2
  --> SNES Residual: 0.200051E-15 0.200051E-15 0.276980E-16
  --> max change:  dcmx=   5.3315E-04  dc/dt=   5.7603E-09 [mol/s]
 Maximum Pore Velocity:   8.4986E+01 [m/y]
 CFL Limiting ( 1.0):   5.8698E-03 ->   2.9349E-03 [y]

== REACTIVE TRANSPORT ==========================================================
  0 2r: 5.78E-06 2x: 0.00E+00 2u: 0.00E+00 ir: 1.44E-07 iu: 0.00E+00 rsn:   0
  1 2r: 2.76E-11 2x: 4.49E+01 2u: 2.34E-02 ir: 5.85E-12 iu: 5.31E-04 rsn:   0
  2 2r: 2.27E-16 2x: 4.49E+01 2u: 8.27E-08 ir: 3.15E-17 iu: 1.13E-08 rsn: rtol

 Step   2487 Time=  1.48863E+01 Dt=  2.93485E-03 [y] conv_reason: 3
  newton =   2 [    4899] linear =    12 [     27784] cuts =  0 [   0]
  --> SNES Linear/Non-Linear Iterations = 12 / 2
  --> SNES Residual: 0.227305E-15 0.227305E-15 0.315367E-16
  --> max change:  dcmx=   5.3131E-04  dc/dt=   5.7406E-09 [mol/s]
 Maximum Pore Velocity:   8.4986E+01 [m/y]
 CFL Limiting ( 1.0):   5.8697E-03 ->   2.9348E-03 [y]

== REACTIVE TRANSPORT ==========================================================
  0 2r: 5.77E-06 2x: 0.00E+00 2u: 0.00E+00 ir: 1.43E-07 iu: 0.00E+00 rsn:   0
  1 2r: 2.77E-11 2x: 4.49E+01 2u: 2.34E-02 ir: 5.88E-12 iu: 5.29E-04 rsn:   0
  2 2r: 2.43E-16 2x: 4.49E+01 2u: 8.31E-08 ir: 3.43E-17 iu: 1.13E-08 rsn: rtol

 Step   2488 Time=  1.48892E+01 Dt=  2.93480E-03 [y] conv_reason: 3
  newton =   2 [    4901] linear =    12 [     27796] cuts =  0 [   0]
  --> SNES Linear/Non-Linear Iterations = 12 / 2
  --> SNES Residual: 0.243103E-15 0.243103E-15 0.342879E-16
  --> max change:  dcmx=   5.2947E-04  dc/dt=   5.7208E-09 [mol/s]
 Maximum Pore Velocity:   8.4986E+01 [m/y]
 CFL Limiting ( 1.0):   5.8696E-03 ->   2.9348E-03 [y]

== REACTIVE TRANSPORT ==========================================================
  0 2r: 5.75E-06 2x: 0.00E+00 2u: 0.00E+00 ir: 1.43E-07 iu: 0.00E+00 rsn:   0
  1 2r: 2.79E-11 2x: 4.49E+01 2u: 2.34E-02 ir: 5.92E-12 iu: 5.28E-04 rsn:   0
  2 2r: 2.53E-16 2x: 4.49E+01 2u: 8.36E-08 ir: 3.67E-17 iu: 1.14E-08 rsn: rtol

 Step   2489 Time=  1.48922E+01 Dt=  2.93475E-03 [y] conv_reason: 3
  newton =   2 [    4903] linear =    12 [     27808] cuts =  0 [   0]
  --> SNES Linear/Non-Linear Iterations = 12 / 2
  --> SNES Residual: 0.252807E-15 0.252807E-15 0.367070E-16
  --> max change:  dcmx=   5.2762E-04  dc/dt=   5.7009E-09 [mol/s]
 Maximum Pore Velocity:   8.4986E+01 [m/y]
 CFL Limiting ( 1.0):   5.8695E-03 ->   2.9347E-03 [y]

== REACTIVE TRANSPORT ==========================================================
  0 2r: 5.74E-06 2x: 0.00E+00 2u: 0.00E+00 ir: 1.42E-07 iu: 0.00E+00 rsn:   0
  1 2r: 2.81E-11 2x: 4.49E+01 2u: 2.34E-02 ir: 5.96E-12 iu: 5.26E-04 rsn:   0
  2 2r: 2.59E-16 2x: 4.49E+01 2u: 8.41E-08 ir: 3.80E-17 iu: 1.15E-08 rsn: rtol

 Step   2490 Time=  1.48951E+01 Dt=  2.93470E-03 [y] conv_reason: 3
  newton =   2 [    4905] linear =    12 [     27820] cuts =  0 [   0]
  --> SNES Linear/Non-Linear Iterations = 12 / 2
  --> SNES Residual: 0.259274E-15 0.259274E-15 0.379539E-16
  --> max change:  dcmx=   5.2578E-04  dc/dt=   5.6811E-09 [mol/s]
 Maximum Pore Velocity:   8.4986E+01 [m/y]
 CFL Limiting ( 1.0):   5.8694E-03 ->   2.9346E-03 [y]

== REACTIVE TRANSPORT ==========================================================
  0 2r: 5.72E-06 2x: 0.00E+00 2u: 0.00E+00 ir: 1.42E-07 iu: 0.00E+00 rsn:   0
  1 2r: 2.82E-11 2x: 4.50E+01 2u: 2.34E-02 ir: 6.00E-12 iu: 5.24E-04 rsn:   0
  2 2r: 2.64E-16 2x: 4.50E+01 2u: 8.46E-08 ir: 3.90E-17 iu: 1.15E-08 rsn: rtol

 Step   2491 Time=  1.48980E+01 Dt=  2.93465E-03 [y] conv_reason: 3
  newton =   2 [    4907] linear =    12 [     27832] cuts =  0 [   0]
  --> SNES Linear/Non-Linear Iterations = 12 / 2
  --> SNES Residual: 0.263681E-15 0.263681E-15 0.389872E-16
  --> max change:  dcmx=   5.2394E-04  dc/dt=   5.6614E-09 [mol/s]
 Maximum Pore Velocity:   8.4986E+01 [m/y]
 CFL Limiting ( 1.0):   5.8693E-03 ->   2.9346E-03 [y]

== REACTIVE TRANSPORT ==========================================================
  0 2r: 5.71E-06 2x: 0.00E+00 2u: 0.00E+00 ir: 1.41E-07 iu: 0.00E+00 rsn:   0
  1 2r: 2.84E-11 2x: 4.50E+01 2u: 2.33E-02 ir: 6.04E-12 iu: 5.22E-04 rsn:   0
  2 2r: 2.67E-16 2x: 4.50E+01 2u: 8.50E-08 ir: 3.98E-17 iu: 1.16E-08 rsn: rtol

 Step   2492 Time=  1.49010E+01 Dt=  2.93459E-03 [y] conv_reason: 3
  newton =   2 [    4909] linear =    12 [     27844] cuts =  0 [   0]
  --> SNES Linear/Non-Linear Iterations = 12 / 2
  --> SNES Residual: 0.266854E-15 0.266854E-15 0.397902E-16
  --> max change:  dcmx=   5.2212E-04  dc/dt=   5.6418E-09 [mol/s]
 Maximum Pore Velocity:   8.4986E+01 [m/y]
 CFL Limiting ( 1.0):   5.8692E-03 ->   2.9345E-03 [y]

== REACTIVE TRANSPORT ==========================================================
  0 2r: 5.69E-06 2x: 0.00E+00 2u: 0.00E+00 ir: 1.41E-07 iu: 0.00E+00 rsn:   0
  1 2r: 4.38E-11 2x: 4.50E+01 2u: 2.49E-02 ir: 9.15E-12 iu: 5.55E-04 rsn:   0
  2 2r: 1.15E-16 2x: 4.50E+01 2u: 1.40E-07 ir: 1.51E-17 iu: 1.87E-08 rsn: rtol

 Step   2493 Time=  1.49041E+01 Dt=  3.13324E-03 [y] conv_reason: 3
  newton =   2 [    4911] linear =    13 [     27857] cuts =  0 [   0]
  --> SNES Linear/Non-Linear Iterations = 13 / 2
  --> SNES Residual: 0.115350E-15 0.115350E-15 0.151043E-16
  --> max change:  dcmx=   5.5541E-04  dc/dt=   5.6210E-09 [mol/s]
 Maximum Pore Velocity:   8.4986E+01 [m/y]
 CFL Limiting ( 1.0):   6.2665E-03 ->   2.9345E-03 [y]

 --> appending to hdf5 output file: 2D_solute.h5
      0.04 Seconds to write HDF5 file.

== RICHARDS FLOW ===============================================================
  0 2r: 2.43E-04 2x: 0.00E+00 2u: 0.00E+00 ir: 6.08E-05 iu: 0.00E+00 rsn:   0
  1 2r: 1.65E-05 2x: 8.22E+06 2u: 7.65E+04 ir: 1.46E-05 iu: 4.62E+03 rsn:   0
  2 2r: 4.91E-07 2x: 8.23E+06 2u: 1.06E+04 ir: 2.90E-07 iu: 8.43E+02 rsn:   0
  3 2r: 5.71E-08 2x: 8.23E+06 2u: 4.16E+02 ir: 4.25E-08 iu: 5.85E+01 rsn:   0
  4 2r: 9.43E-14 2x: 8.23E+06 2u: 1.58E+00 ir: 5.16E-14 iu: 2.70E-01 rsn: itol_upd

 Step    203 Time=  1.49863E+01 Dt=  8.21918E-02 [y] conv_reason: 11
  newton =   4 [     826] linear =   270 [     56313] cuts =  0 [   0]
  --> SNES Linear/Non-Linear Iterations = 270 / 4
  --> SNES Residual: 0.942509E-13 0.942509E-17 0.516402E-13
  --> max change: dpmx=   4.6152E+03

== REACTIVE TRANSPORT ==========================================================
  0 2r: 6.07E-06 2x: 0.00E+00 2u: 0.00E+00 ir: 4.05E-07 iu: 0.00E+00 rsn:   0
  1 2r: 1.16E-11 2x: 4.50E+01 2u: 2.39E-02 ir: 1.54E-12 iu: 7.08E-04 rsn:   0
  2 2r: 4.72E-17 2x: 4.50E+01 2u: 2.59E-08 ir: 6.48E-18 iu: 2.11E-09 rsn: rtol

 Step   2494 Time=  1.49070E+01 Dt=  2.93449E-03 [y] conv_reason: 3
  newton =   2 [    4913] linear =     9 [     27866] cuts =  0 [   0]
  --> SNES Linear/Non-Linear Iterations = 9 / 2
  --> SNES Residual: 0.471946E-16 0.471946E-16 0.647811E-17
  --> max change:  dcmx=   7.0850E-04  dc/dt=   7.6560E-09 [mol/s]
 Maximum Pore Velocity:   2.7420E+01 [m/y]

== REACTIVE TRANSPORT ==========================================================
  0 2r: 5.92E-06 2x: 0.00E+00 2u: 0.00E+00 ir: 1.60E-07 iu: 0.00E+00 rsn:   0
  1 2r: 9.91E-11 2x: 4.50E+01 2u: 4.71E-02 ir: 8.84E-12 iu: 1.25E-03 rsn:   0
  2 2r: 5.24E-16 2x: 4.50E+01 2u: 5.90E-07 ir: 6.64E-17 iu: 4.41E-08 rsn: rtol

 Step   2495 Time=  1.49129E+01 Dt=  5.86898E-03 [y] conv_reason: 3
  newton =   2 [    4915] linear =    11 [     27877] cuts =  0 [   0]
  --> SNES Linear/Non-Linear Iterations = 11 / 2
  --> SNES Residual: 0.524313E-15 0.524313E-15 0.663701E-16
  --> max change:  dcmx=   1.2498E-03  dc/dt=   6.7524E-09 [mol/s]
 Maximum Pore Velocity:   2.7396E+01 [m/y]

== REACTIVE TRANSPORT ==========================================================
  0 2r: 5.86E-06 2x: 0.00E+00 2u: 0.00E+00 ir: 1.47E-07 iu: 0.00E+00 rsn:   0
  1 2r: 1.28E-10 2x: 4.51E+01 2u: 9.29E-02 ir: 1.41E-11 iu: 2.13E-03 rsn:   0
  2 2r: 1.11E-15 2x: 4.51E+01 2u: 1.22E-06 ir: 1.09E-16 iu: 7.36E-08 rsn: rtol

 Step   2496 Time=  1.49247E+01 Dt=  1.17380E-02 [y] conv_reason: 3
  newton =   2 [    4917] linear =    15 [     27892] cuts =  0 [   0]
  --> SNES Linear/Non-Linear Iterations = 15 / 2
  --> SNES Residual: 0.111131E-14 0.111131E-14 0.109420E-15
  --> max change:  dcmx=   2.1267E-03  dc/dt=   5.7452E-09 [mol/s]
 Maximum Pore Velocity:   2.7359E+01 [m/y]
 CFL Limiting ( 1.0):   2.3476E-02 ->   1.9388E-02 [y]

== REACTIVE TRANSPORT ==========================================================
  0 2r: 5.80E-06 2x: 0.00E+00 2u: 0.00E+00 ir: 1.42E-07 iu: 0.00E+00 rsn:   0
  1 2r: 1.35E-10 2x: 4.52E+01 2u: 1.51E-01 ir: 1.49E-11 iu: 3.41E-03 rsn:   0
  2 2r: 7.62E-16 2x: 4.52E+01 2u: 2.52E-06 ir: 8.83E-17 iu: 1.40E-07 rsn: rtol

 Step   2497 Time=  1.49440E+01 Dt=  1.93879E-02 [y] conv_reason: 3
  newton =   2 [    4919] linear =    20 [     27912] cuts =  0 [   0]
  --> SNES Linear/Non-Linear Iterations = 20 / 2
  --> SNES Residual: 0.762120E-15 0.762120E-15 0.882871E-16
  --> max change:  dcmx=   3.4133E-03  dc/dt=   5.5826E-09 [mol/s]
 Maximum Pore Velocity:   2.7311E+01 [m/y]
 CFL Limiting ( 1.0):   3.8776E-02 ->   1.9862E-02 [y]

== REACTIVE TRANSPORT ==========================================================
  0 2r: 5.74E-06 2x: 0.00E+00 2u: 0.00E+00 ir: 1.39E-07 iu: 0.00E+00 rsn:   0
  1 2r: 1.69E-10 2x: 4.52E+01 2u: 1.53E-01 ir: 1.93E-11 iu: 3.47E-03 rsn:   0
  2 2r: 1.19E-15 2x: 4.52E+01 2u: 3.14E-06 ir: 1.10E-16 iu: 1.73E-07 rsn: rtol

 Step   2498 Time=  1.49639E+01 Dt=  1.98619E-02 [y] conv_reason: 3
  newton =   2 [    4921] linear =    20 [     27932] cuts =  0 [   0]
  --> SNES Linear/Non-Linear Iterations = 20 / 2
  --> SNES Residual: 0.119497E-14 0.119497E-14 0.110257E-15
  --> max change:  dcmx=   3.4708E-03  dc/dt=   5.5411E-09 [mol/s]
 Maximum Pore Velocity:   2.7279E+01 [m/y]
 CFL Limiting ( 1.0):   3.9724E-02 ->   2.0348E-02 [y]

== REACTIVE TRANSPORT ==========================================================
  0 2r: 5.68E-06 2x: 0.00E+00 2u: 0.00E+00 ir: 1.38E-07 iu: 0.00E+00 rsn:   0
  1 2r: 9.37E-11 2x: 4.53E+01 2u: 1.55E-01 ir: 1.04E-11 iu: 3.53E-03 rsn:   0
  2 2r: 7.38E-16 2x: 4.53E+01 2u: 1.84E-06 ir: 6.46E-17 iu: 1.04E-07 rsn: rtol

 Step   2499 Time=  1.49842E+01 Dt=  2.03476E-02 [y] conv_reason: 3
  newton =   2 [    4923] linear =    20 [     27952] cuts =  0 [   0]
  --> SNES Linear/Non-Linear Iterations = 20 / 2
  --> SNES Residual: 0.738333E-15 0.738333E-15 0.646100E-16
  --> max change:  dcmx=   3.5311E-03  dc/dt=   5.5030E-09 [mol/s]
 Maximum Pore Velocity:   2.7253E+01 [m/y]
 CFL Limiting ( 1.0):   4.0695E-02 ->   2.0845E-02 [y]

== REACTIVE TRANSPORT ==========================================================
  0 2r: 5.62E-06 2x: 0.00E+00 2u: 0.00E+00 ir: 1.37E-07 iu: 0.00E+00 rsn:   0
  1 2r: 8.32E-12 2x: 4.53E+01 2u: 1.56E-02 ir: 8.39E-13 iu: 3.56E-04 rsn:   0
  2 2r: 1.01E-17 2x: 4.53E+01 2u: 1.78E-08 ir: 7.25E-19 iu: 1.63E-09 rsn: rtol

 Step   2500 Time=  1.49863E+01 Dt=  2.05298E-03 [y] conv_reason: 3
  newton =   2 [    4925] linear =     8 [     27960] cuts =  0 [   0]
  --> SNES Linear/Non-Linear Iterations = 8 / 2
  --> SNES Residual: 0.100516E-16 0.100516E-16 0.725060E-18
  --> max change:  dcmx=   3.5602E-04  dc/dt=   5.4991E-09 [mol/s]
 Maximum Pore Velocity:   2.7250E+01 [m/y]

 --> appending to hdf5 output file: 2D_solute.h5
      0.03 Seconds to write HDF5 file.

== RICHARDS FLOW ===============================================================
  0 2r: 2.84E-04 2x: 0.00E+00 2u: 0.00E+00 ir: 6.08E-05 iu: 0.00E+00 rsn:   0
  1 2r: 1.20E-05 2x: 8.24E+06 2u: 6.39E+04 ir: 6.77E-06 iu: 4.65E+03 rsn:   0
  2 2r: 3.11E-07 2x: 8.25E+06 2u: 6.94E+03 ir: 1.26E-07 iu: 8.35E+02 rsn:   0
  3 2r: 5.25E-10 2x: 8.25E+06 2u: 2.53E+02 ir: 1.40E-10 iu: 5.01E+01 rsn:   0
  4 2r: 4.66E-14 2x: 8.25E+06 2u: 7.21E-01 ir: 4.52E-15 iu: 2.08E-01 rsn: itol_upd

 Step    204 Time=  1.50000E+01 Dt=  1.36986E-02 [y] conv_reason: 11
  newton =   4 [     830] linear =   177 [     56490] cuts =  0 [   0]
  --> SNES Linear/Non-Linear Iterations = 177 / 4
  --> SNES Residual: 0.466187E-13 0.466187E-17 0.452488E-14
  --> max change: dpmx=   4.6531E+03

== REACTIVE TRANSPORT ==========================================================
  0 2r: 4.20E-05 2x: 0.00E+00 2u: 0.00E+00 ir: 2.15E-05 iu: 0.00E+00 rsn:   0
  1 2r: 1.59E-10 2x: 4.54E+01 2u: 2.33E-01 ir: 2.52E-11 iu: 2.48E-02 rsn:   0
  2 2r: 6.52E-16 2x: 4.54E+01 2u: 2.19E-06 ir: 8.25E-17 iu: 1.99E-07 rsn: rtol

 Step   2501 Time=  1.50000E+01 Dt=  1.36986E-02 [y] conv_reason: 3
  newton =   2 [    4927] linear =    16 [     27976] cuts =  0 [   0]
  --> SNES Linear/Non-Linear Iterations = 16 / 2
  --> SNES Residual: 0.651736E-15 0.651736E-15 0.824748E-16
  --> max change:  dcmx=   2.4834E-02  dc/dt=   5.7485E-08 [mol/s]
 Maximum Pore Velocity:   7.7319E+01 [m/y]
 CFL Limiting ( 1.0):   2.7397E-02 ->   3.6178E-03 [y]

 --> appending to hdf5 output file: 2D_solute.h5
      0.04 Seconds to write HDF5 file.

PMCSubsurfaceFlow
 Total Time: 1.1760E+02 seconds

 FLOW TS SNES steps = 204  newton = 830  linear = 56490  cuts = 0
 FLOW TS SNES Wasted Linear Iterations = 0
 FLOW TS SNES Wasted Newton Iterations = 0
 FLOW TS SNES time = 115.1 seconds

PMCSubsurfaceTransport
 Total Time: 5.6277E+02 seconds

 TRAN TS SNES steps = 2501  newton = 4927  linear = 27976  cuts = 0
 TRAN TS SNES Wasted Linear Iterations = 0
 TRAN TS SNES Wasted Newton Iterations = 0
 TRAN TS SNES time = 514.2 seconds

 Wall Clock Time:  7.0823E+02 [sec]   1.1804E+01 [min]   1.9673E-01 [hr]
