
=================
  PFLOTRAN v6.0
=================

"grid_structured_type" set to default value.
pflotran card:: NUMERICAL_METHODS
pflotran card:: NUMERICAL_METHODS
pflotran card:: CHEMISTRY
pflotran card:: GRID
pflotran card:: FLUID_PROPERTY
"FLUID_PROPERTY,diffusion_coefficient units" set to default value.
pflotran card:: MATERIAL_PROPERTY
  Name :: soil1
pflotran card:: CHARACTERISTIC_CURVES
  Name :: default
 WARNING: Mualem-van Genuchten relative permeability function is being used without SMOOTH option.
pflotran card:: OUTPUT
"OUTPUT,SNAPSHOT_FILE,FORMAT,HDF5" set to default value.
pflotran card:: TIME
pflotran card:: REGION
all
pflotran card:: REGION
top
pflotran card:: REGION
bottom
pflotran card:: REGION
east
pflotran card:: REGION
west
pflotran card:: REGION
west_up
pflotran card:: REGION
lake
pflotran card:: FLOW_CONDITION
initial
pflotran card:: FLOW_CONDITION
west
pflotran card:: FLOW_CONDITION
east
pflotran card:: TRANSPORT_CONDITION
initial
pflotran card:: TRANSPORT_CONDITION
lake
pflotran card:: TRANSPORT_CONDITION
river
pflotran card:: CONSTRAINT
initial
Constraint Species: Tracer
pflotran card:: CONSTRAINT
lake
Constraint Species: Tracer
pflotran card:: CONSTRAINT
river
Constraint Species: Tracer
pflotran card:: INITIAL_CONDITION
"Initial Condition name" set to default value.
pflotran card:: BOUNDARY_CONDITION
pflotran card:: BOUNDARY_CONDITION
pflotran card:: BOUNDARY_CONDITION
pflotran card:: STRATA
pflotran card:: END_SUBSURFACE
--------------------------------------------------------------------------------

     1  Primary Species

              Tracer              

     0  Secondary Complex Species



     0  Active Gas Species



     0  Passive Gas Species



     0  Reference Minerals



     0  Kinetic Mineral Reactions



     0  Ion Exchange Reactions

     0  Ion Exchange Cations
--------------------------------------------------------------------------------

Process Decomposition

Extent of Gridded Domain
 X: 0.000000E+00 - 1.000000E+02
 Y: 0.000000E+00 - 1.000000E+00
 Z: 0.000000E+00 - 1.000000E+01

Size of Gridded Domain
 Number of grid cells: 10000
 Maximum number of grid cells per process: 1250
 Minimum number of grid cells per process: 1250

Number of active grid cells: 10000
Number of inactive grid cells: 0

  Setting up TRAN Realization
  Finished setting up TRAN Realization

=+=+=+=+=+=+=+=+=+=+=+=+=+=+=+=+=+=+=+=+=+=+=+=+=+=+=+=+=+=+=+=+=+=+=+=+=+=+=+=+

  Initial Condition

--------------------------------------------------------------------------------
          Flow Condition:   initial
     Transport Condition:   initial
                  Region:   all
--------------------------------------------------------------------------------

  Flow Condition: initial
    Synchronize time with update: no
    Time units: yr
    Length units: m
      Datum:
        Dataset: Unnamed Ascii Dataset
          Type: dataset_ascii_type
          Transient: no
          Array Rank:  3

    Sub Condition: pressure
      Type: hydrostatic
      Gradient:
        Dataset: Unnamed Ascii Dataset
          Type: dataset_ascii_type
          Transient: no
          Array Rank:  3
      Data:
        Dataset: Unnamed Ascii Dataset
          Type: dataset_ascii_type
          Transient: no
          Array Rank:  1

--------------------------------------------------------------------------------

  Transport Condition: initial

  Constraint: initial

  species       molality
  Tracer        1.0028E-10


--------------------------------------------------------------------------------

=+=+=+=+=+=+=+=+=+=+=+=+=+=+=+=+=+=+=+=+=+=+=+=+=+=+=+=+=+=+=+=+=+=+=+=+=+=+=+=+

  Boundary Condition

--------------------------------------------------------------------------------
          Flow Condition:   west
     Transport Condition:   initial
                  Region:   west_up
--------------------------------------------------------------------------------

  Flow Condition: west
    Synchronize time with update: no
    Time units: yr
    Length units: m
      Datum:
        Dataset: Unnamed Ascii Dataset
          Type: dataset_ascii_type
          Transient: no
          Array Rank:  3

    Sub Condition: pressure
      Type: hydrostatic
      Gradient:
      Data:
        Dataset: Unnamed Ascii Dataset
          Type: dataset_ascii_type
          Transient: no
          Array Rank:  1

--------------------------------------------------------------------------------

  Transport Condition: initial

  Constraint: initial

  species       molality
  Tracer        1.0028E-10


--------------------------------------------------------------------------------

=+=+=+=+=+=+=+=+=+=+=+=+=+=+=+=+=+=+=+=+=+=+=+=+=+=+=+=+=+=+=+=+=+=+=+=+=+=+=+=+

  Boundary Condition

--------------------------------------------------------------------------------
          Flow Condition:   west
     Transport Condition:   initial
                  Region:   lake
--------------------------------------------------------------------------------

  Flow Condition: west
    Synchronize time with update: no
    Time units: yr
    Length units: m
      Datum:
        Dataset: Unnamed Ascii Dataset
          Type: dataset_ascii_type
          Transient: no
          Array Rank:  3

    Sub Condition: pressure
      Type: hydrostatic
      Gradient:
      Data:
        Dataset: Unnamed Ascii Dataset
          Type: dataset_ascii_type
          Transient: no
          Array Rank:  1

--------------------------------------------------------------------------------

  Transport Condition: initial

  Constraint: initial

  species       molality
  Tracer        1.0028E-10


--------------------------------------------------------------------------------

=+=+=+=+=+=+=+=+=+=+=+=+=+=+=+=+=+=+=+=+=+=+=+=+=+=+=+=+=+=+=+=+=+=+=+=+=+=+=+=+

  Boundary Condition

--------------------------------------------------------------------------------
          Flow Condition:   east
     Transport Condition:   river
                  Region:   east
--------------------------------------------------------------------------------

  Flow Condition: east
    Synchronize time with update: no
    Time units: yr
    Length units: m
      Datum:
        Dataset: Unnamed Ascii Dataset
          Type: dataset_ascii_type
          Filename: ./river_stage.txt
          Is transient?: yes
          Number of times:     25
          Is cyclic?: yes
          Buffer:
            Rank:  2
            Dims:    3  25
            Buffer Slice Size:   0
          Array Rank:  3

    Sub Condition: pressure
      Type: seepage
      Gradient:
      Data:
        Dataset: Unnamed Ascii Dataset
          Type: dataset_ascii_type
          Transient: no
          Array Rank:  1

--------------------------------------------------------------------------------

  Transport Condition: river

  Constraint: initial

  species       molality
  Tracer        1.0028E-10


--------------------------------------------------------------------------------
Default HDF5 method is used in Initialization
  Beginning setup of FLOW SNES
 number of dofs =   1, number of phases =   1
 mode = Richards: p
  Finished setting up FLOW SNES
mode = Reactive Transport
  Beginning setup of TRAN SNES
  Finished setting up TRAN SNES

 Requested processors and decomposition =     8, npx,y,z=   -1  -1  -1
 Actual decomposition: npx,y,z=    2   1   4


FLOW Time Stepper SNES
      maximum number of steps: 999999
constant time steps threshold: 5
       maximum number of cuts: 16
             reduction factor: 5.000000E-01
        maximum growth factor: 2.000000E+00
                 acceleration: on
       acceleration threshold: 5
       number of ramp entries: 5
                ramp entry #1: 2.0000
                ramp entry #2: 2.0000
                ramp entry #3: 2.0000
                ramp entry #4: 2.0000
                ramp entry #5: 2.0000
                ramp entry #6: 1.8000
                ramp entry #7: 1.6000
                ramp entry #8: 1.4000
                ramp entry #9: 1.2000
               ramp entry #10: 1.0000
               ramp entry #11: 1.0000
               ramp entry #12: 1.0000
               ramp entry #13: 1.0000

FLOW Newton Solver
                         atol: 1.000000E-50
                         rtol: 1.000000E-08
                         stol: 1.000000E-08
                         dtol: 1.000000E+04
                      maxnorm: 1.000000E+20
                    inftolres: -9.990000E+02
                    inftolupd: 1.000000E+00
                 inftolrelupd: -9.990000E+02
                 inftolsclres: -9.990000E+02
                     max iter: 50
                     min iter: 1
                         maxf: 10000
                  matrix type: baij
         precond. matrix type: baij
               inexact newton: off
            print convergence: on
   print detailed convergence: off
          check infinity norm: on

FLOW Linear Solver
                       solver: bcgs
               preconditioner: bjacobi
                         atol: 1.000000E-50
                         rtol: 1.000000E-05
                         dtol: 1.000000E+04
            maximum iteration: 10000

TRAN Time Stepper SNES
      maximum number of steps: 999999
constant time steps threshold: 5
       maximum number of cuts: 16
             reduction factor: 5.000000E-01
        maximum growth factor: 2.000000E+00
                 acceleration: on
       acceleration threshold: 5
       number of ramp entries: 5
                ramp entry #1: 2.0000
                ramp entry #2: 2.0000
                ramp entry #3: 2.0000
                ramp entry #4: 2.0000
                ramp entry #5: 2.0000
                ramp entry #6: 1.8000
                ramp entry #7: 1.6000
                ramp entry #8: 1.4000
                ramp entry #9: 1.2000
               ramp entry #10: 1.0000
               ramp entry #11: 1.0000
               ramp entry #12: 1.0000
               ramp entry #13: 1.0000

TRAN Newton Solver
                         atol: 1.000000E-50
                         rtol: 1.000000E-08
                         stol: 1.000000E-08
                         dtol: 1.000000E+04
                      maxnorm: 1.000000E+20
                    inftolres: -9.990000E+02
                    inftolupd: -9.990000E+02
                 inftolrelupd: -9.990000E+02
                 inftolsclres: -9.990000E+02
                     max iter: 50
                     min iter: 1
                         maxf: 10000
                  matrix type: baij
         precond. matrix type: baij
               inexact newton: off
            print convergence: on
   print detailed convergence: off
          check infinity norm: on

TRAN Linear Solver
                       solver: bcgs
               preconditioner: bjacobi
                         atol: 1.000000E-50
                         rtol: 1.000000E-05
                         dtol: 1.000000E+04
            maximum iteration: 10000

 --> creating hdf5 output file: 4-hw7-2D_solute.h5
      0.10 Seconds to write HDF5 file.

 Finished Initialization


== RICHARDS FLOW ===============================================================
  0 2r: 2.09E-06 2x: 0.00E+00 2u: 0.00E+00 ir: 1.17E-06 iu: 0.00E+00 rsn:   0
  1 2r: 1.06E-07 2x: 7.75E+06 2u: 4.06E+01 ir: 6.70E-08 iu: 1.01E+01 rsn:   0
  2 2r: 1.10E-12 2x: 7.75E+06 2u: 7.77E-01 ir: 6.51E-13 iu: 5.39E-02 rsn: itol_upd

 Step      1 Time=  1.14155E-05 Dt=  1.14155E-05 [y] conv_reason: 11
  newton =   2 [       2] linear =    44 [        44] cuts =  0 [   0]
  --> SNES Linear/Non-Linear Iterations = 44 / 2
  --> SNES Residual: 0.109744E-11 0.109744E-15 0.650675E-12
  --> max change: dpmx=   1.0185E+01

== REACTIVE TRANSPORT ==========================================================
  0 2r: 8.90E-21 2x: 0.00E+00 2u: 0.00E+00 ir: 5.97E-22 iu: 0.00E+00 rsn:   0
  1 2r: 4.84E-26 2x: 1.00E-08 2u: 1.29E-19 ir: 2.42E-27 iu: 1.33E-20 rsn: stol

 Step      1 Time=  1.14155E-05 Dt=  1.14155E-05 [y] conv_reason: 4
  newton =   1 [       1] linear =     2 [         2] cuts =  0 [   0]
  --> SNES Linear/Non-Linear Iterations = 2 / 1
  --> SNES Residual: 0.483712E-25 0.483712E-25 0.242338E-26
  --> max change:  dcmx=   1.3263E-20  dc/dt=   3.6841E-23 [mol/s]
 Maximum Pore Velocity:   2.7713E+01 [m/y]

== RICHARDS FLOW ===============================================================
  0 2r: 1.63E-06 2x: 0.00E+00 2u: 0.00E+00 ir: 6.93E-07 iu: 0.00E+00 rsn:   0
  1 2r: 1.14E-07 2x: 7.75E+06 2u: 4.95E+01 ir: 8.12E-08 iu: 9.49E+00 rsn:   0
  2 2r: 1.69E-12 2x: 7.75E+06 2u: 2.00E-01 ir: 1.26E-12 iu: 8.30E-02 rsn: itol_upd

 Step      2 Time=  3.42466E-05 Dt=  2.28311E-05 [y] conv_reason: 11
  newton =   2 [       4] linear =    43 [        87] cuts =  0 [   0]
  --> SNES Linear/Non-Linear Iterations = 43 / 2
  --> SNES Residual: 0.168668E-11 0.168668E-15 0.125816E-11
  --> max change: dpmx=   9.5332E+00

== REACTIVE TRANSPORT ==========================================================
  0 2r: 1.02E-20 2x: 0.00E+00 2u: 0.00E+00 ir: 3.75E-21 iu: 0.00E+00 rsn:   0
  1 2r: 2.47E-26 2x: 1.00E-08 2u: 2.84E-19 ir: 1.62E-27 iu: 9.68E-20 rsn: stol

 Step      2 Time=  3.42466E-05 Dt=  2.28311E-05 [y] conv_reason: 4
  newton =   1 [       2] linear =     2 [         4] cuts =  0 [   0]
  --> SNES Linear/Non-Linear Iterations = 2 / 1
  --> SNES Residual: 0.246526E-25 0.246526E-25 0.161559E-26
  --> max change:  dcmx=   9.6842E-20  dc/dt=   1.3450E-22 [mol/s]
 Maximum Pore Velocity:   2.7716E+01 [m/y]

== RICHARDS FLOW ===============================================================
  0 2r: 1.38E-06 2x: 0.00E+00 2u: 0.00E+00 ir: 5.12E-07 iu: 0.00E+00 rsn:   0
  1 2r: 5.65E-08 2x: 7.75E+06 2u: 7.32E+01 ir: 4.01E-08 iu: 1.16E+01 rsn:   0
  2 2r: 6.82E-13 2x: 7.75E+06 2u: 1.11E-01 ir: 4.91E-13 iu: 5.14E-02 rsn: itol_upd

 Step      3 Time=  7.99087E-05 Dt=  4.56621E-05 [y] conv_reason: 11
  newton =   2 [       6] linear =    49 [       136] cuts =  0 [   0]
  --> SNES Linear/Non-Linear Iterations = 49 / 2
  --> SNES Residual: 0.682233E-12 0.682233E-16 0.490999E-12
  --> max change: dpmx=   1.1610E+01

== REACTIVE TRANSPORT ==========================================================
  0 2r: 1.03E-20 2x: 0.00E+00 2u: 0.00E+00 ir: 2.59E-21 iu: 0.00E+00 rsn:   0
  1 2r: 1.28E-26 2x: 1.00E-08 2u: 5.57E-19 ir: 6.06E-28 iu: 1.19E-19 rsn: stol

 Step      3 Time=  7.99087E-05 Dt=  4.56621E-05 [y] conv_reason: 4
  newton =   1 [       3] linear =     3 [         7] cuts =  0 [   0]
  --> SNES Linear/Non-Linear Iterations = 3 / 1
  --> SNES Residual: 0.128357E-25 0.128357E-25 0.605845E-27
  --> max change:  dcmx=   1.1896E-19  dc/dt=   8.2611E-23 [mol/s]
 Maximum Pore Velocity:   2.7719E+01 [m/y]

== RICHARDS FLOW ===============================================================
  0 2r: 1.16E-06 2x: 0.00E+00 2u: 0.00E+00 ir: 3.63E-07 iu: 0.00E+00 rsn:   0
  1 2r: 3.44E-08 2x: 7.75E+06 2u: 1.16E+02 ir: 2.43E-08 iu: 1.50E+01 rsn:   0
  2 2r: 4.01E-13 2x: 7.75E+06 2u: 8.04E-02 ir: 2.73E-13 iu: 4.40E-02 rsn: itol_upd

 Step      4 Time=  1.71233E-04 Dt=  9.13242E-05 [y] conv_reason: 11
  newton =   2 [       8] linear =    54 [       190] cuts =  0 [   0]
  --> SNES Linear/Non-Linear Iterations = 54 / 2
  --> SNES Residual: 0.401114E-12 0.401114E-16 0.272848E-12
  --> max change: dpmx=   1.4988E+01

== REACTIVE TRANSPORT ==========================================================
  0 2r: 1.15E-20 2x: 0.00E+00 2u: 0.00E+00 ir: 3.55E-21 iu: 0.00E+00 rsn:   0
  1 2r: 7.58E-27 2x: 1.00E-08 2u: 1.14E-18 ir: 1.11E-27 iu: 2.52E-19 rsn: stol

 Step      4 Time=  1.71233E-04 Dt=  9.13242E-05 [y] conv_reason: 4
  newton =   1 [       4] linear =     3 [        10] cuts =  0 [   0]
  --> SNES Linear/Non-Linear Iterations = 3 / 1
  --> SNES Residual: 0.758215E-26 0.758215E-26 0.111072E-26
  --> max change:  dcmx=   2.5235E-19  dc/dt=   8.7620E-23 [mol/s]
 Maximum Pore Velocity:   2.7720E+01 [m/y]

== RICHARDS FLOW ===============================================================
  0 2r: 9.99E-07 2x: 0.00E+00 2u: 0.00E+00 ir: 2.47E-07 iu: 0.00E+00 rsn:   0
  1 2r: 3.36E-08 2x: 7.75E+06 2u: 1.93E+02 ir: 2.34E-08 iu: 1.97E+01 rsn:   0
  2 2r: 4.60E-13 2x: 7.75E+06 2u: 1.03E-01 ir: 3.46E-13 iu: 5.64E-02 rsn: itol_upd

 Step      5 Time=  3.53881E-04 Dt=  1.82648E-04 [y] conv_reason: 11
  newton =   2 [      10] linear =    60 [       250] cuts =  0 [   0]
  --> SNES Linear/Non-Linear Iterations = 60 / 2
  --> SNES Residual: 0.459708E-12 0.459708E-16 0.345515E-12
  --> max change: dpmx=   1.9690E+01

== REACTIVE TRANSPORT ==========================================================
  0 2r: 1.32E-20 2x: 0.00E+00 2u: 0.00E+00 ir: 4.12E-21 iu: 0.00E+00 rsn:   0
  1 2r: 7.66E-26 2x: 1.00E-08 2u: 2.30E-18 ir: 2.40E-26 iu: 4.29E-19 rsn: stol

 Step      5 Time=  3.53881E-04 Dt=  1.82648E-04 [y] conv_reason: 4
  newton =   1 [       5] linear =     3 [        13] cuts =  0 [   0]
  --> SNES Linear/Non-Linear Iterations = 3 / 1
  --> SNES Residual: 0.765861E-25 0.765861E-25 0.239814E-25
  --> max change:  dcmx=   4.2924E-19  dc/dt=   7.4522E-23 [mol/s]
 Maximum Pore Velocity:   2.7721E+01 [m/y]

== RICHARDS FLOW ===============================================================
  0 2r: 9.37E-07 2x: 0.00E+00 2u: 0.00E+00 ir: 1.61E-07 iu: 0.00E+00 rsn:   0
  1 2r: 3.68E-08 2x: 7.75E+06 2u: 3.30E+02 ir: 2.57E-08 iu: 2.63E+01 rsn:   0
  2 2r: 7.67E-13 2x: 7.75E+06 2u: 1.63E-01 ir: 5.86E-13 iu: 8.39E-02 rsn: itol_upd

 Step      6 Time=  7.19178E-04 Dt=  3.65297E-04 [y] conv_reason: 11
  newton =   2 [      12] linear =    71 [       321] cuts =  0 [   0]
  --> SNES Linear/Non-Linear Iterations = 71 / 2
  --> SNES Residual: 0.767075E-12 0.767075E-16 0.586345E-12
  --> max change: dpmx=   2.6258E+01

== REACTIVE TRANSPORT ==========================================================
  0 2r: 1.58E-20 2x: 0.00E+00 2u: 0.00E+00 ir: 4.57E-21 iu: 0.00E+00 rsn:   0
  1 2r: 3.82E-26 2x: 1.00E-08 2u: 4.61E-18 ir: 1.39E-26 iu: 6.78E-19 rsn: stol

 Step      6 Time=  7.19178E-04 Dt=  3.65297E-04 [y] conv_reason: 4
  newton =   1 [       6] linear =     4 [        17] cuts =  0 [   0]
  --> SNES Linear/Non-Linear Iterations = 4 / 1
  --> SNES Residual: 0.382095E-25 0.382095E-25 0.139344E-25
  --> max change:  dcmx=   6.7790E-19  dc/dt=   5.8846E-23 [mol/s]
 Maximum Pore Velocity:   2.7722E+01 [m/y]

== RICHARDS FLOW ===============================================================
  0 2r: 1.12E-06 2x: 0.00E+00 2u: 0.00E+00 ir: 2.70E-07 iu: 0.00E+00 rsn:   0
  1 2r: 3.26E-08 2x: 7.75E+06 2u: 5.86E+02 ir: 2.31E-08 iu: 3.61E+01 rsn:   0
  2 2r: 8.43E-13 2x: 7.75E+06 2u: 2.68E-01 ir: 6.30E-13 iu: 9.98E-02 rsn: itol_upd

 Step      7 Time=  1.44977E-03 Dt=  7.30594E-04 [y] conv_reason: 11
  newton =   2 [      14] linear =    86 [       407] cuts =  0 [   0]
  --> SNES Linear/Non-Linear Iterations = 86 / 2
  --> SNES Residual: 0.843343E-12 0.843343E-16 0.630118E-12
  --> max change: dpmx=   3.6078E+01

== REACTIVE TRANSPORT ==========================================================
  0 2r: 2.09E-20 2x: 0.00E+00 2u: 0.00E+00 ir: 5.98E-21 iu: 0.00E+00 rsn:   0
  1 2r: 5.91E-26 2x: 1.00E-08 2u: 9.13E-18 ir: 2.23E-26 iu: 1.11E-18 rsn: stol

 Step      7 Time=  1.44977E-03 Dt=  7.30594E-04 [y] conv_reason: 4
  newton =   1 [       7] linear =     5 [        22] cuts =  0 [   0]
  --> SNES Linear/Non-Linear Iterations = 5 / 1
  --> SNES Residual: 0.590936E-25 0.590936E-25 0.223153E-25
  --> max change:  dcmx=   1.1144E-18  dc/dt=   4.8367E-23 [mol/s]
 Maximum Pore Velocity:   2.7723E+01 [m/y]

== RICHARDS FLOW ===============================================================
  0 2r: 1.83E-06 2x: 0.00E+00 2u: 0.00E+00 ir: 5.40E-07 iu: 0.00E+00 rsn:   0
  1 2r: 2.06E-08 2x: 7.75E+06 2u: 1.07E+03 ir: 1.23E-08 iu: 5.28E+01 rsn:   0
  2 2r: 3.51E-13 2x: 7.75E+06 2u: 5.88E-01 ir: 1.91E-13 iu: 7.98E-02 rsn: itol_upd

 Step      8 Time=  2.91096E-03 Dt=  1.46119E-03 [y] conv_reason: 11
  newton =   2 [      16] linear =   104 [       511] cuts =  0 [   0]
  --> SNES Linear/Non-Linear Iterations = 104 / 2
  --> SNES Residual: 0.350599E-12 0.350599E-16 0.190580E-12
  --> max change: dpmx=   5.2748E+01

== REACTIVE TRANSPORT ==========================================================
  0 2r: 3.16E-20 2x: 0.00E+00 2u: 0.00E+00 ir: 9.54E-21 iu: 0.00E+00 rsn:   0
  1 2r: 1.10E-25 2x: 1.00E-08 2u: 1.81E-17 ir: 4.80E-26 iu: 1.86E-18 rsn: stol

 Step      8 Time=  2.91096E-03 Dt=  1.46119E-03 [y] conv_reason: 4
  newton =   1 [       8] linear =     6 [        28] cuts =  0 [   0]
  --> SNES Linear/Non-Linear Iterations = 6 / 1
  --> SNES Residual: 0.110330E-24 0.110330E-24 0.479817E-25
  --> max change:  dcmx=   1.8635E-18  dc/dt=   4.0440E-23 [mol/s]
 Maximum Pore Velocity:   2.7723E+01 [m/y]

== RICHARDS FLOW ===============================================================
  0 2r: 3.47E-06 2x: 0.00E+00 2u: 0.00E+00 ir: 1.08E-06 iu: 0.00E+00 rsn:   0
  1 2r: 1.24E-08 2x: 7.76E+06 2u: 2.03E+03 ir: 4.33E-09 iu: 8.63E+01 rsn:   0
  2 2r: 6.59E-13 2x: 7.76E+06 2u: 1.56E+00 ir: 1.13E-13 iu: 1.81E-01 rsn: itol_upd

 Step      9 Time=  5.83333E-03 Dt=  2.92237E-03 [y] conv_reason: 11
  newton =   2 [      18] linear =   115 [       626] cuts =  0 [   0]
  --> SNES Linear/Non-Linear Iterations = 115 / 2
  --> SNES Residual: 0.658889E-12 0.658889E-16 0.112651E-12
  --> max change: dpmx=   8.6094E+01

== REACTIVE TRANSPORT ==========================================================
  0 2r: 5.35E-20 2x: 0.00E+00 2u: 0.00E+00 ir: 1.70E-20 iu: 0.00E+00 rsn:   0
  1 2r: 2.76E-25 2x: 1.00E-08 2u: 3.67E-17 ir: 1.22E-25 iu: 3.10E-18 rsn: stol

 Step      9 Time=  5.83333E-03 Dt=  2.92237E-03 [y] conv_reason: 4
  newton =   1 [       9] linear =     7 [        35] cuts =  0 [   0]
  --> SNES Linear/Non-Linear Iterations = 7 / 1
  --> SNES Residual: 0.275537E-24 0.275537E-24 0.122065E-24
  --> max change:  dcmx=   3.1032E-18  dc/dt=   3.3672E-23 [mol/s]
 Maximum Pore Velocity:   2.7722E+01 [m/y]

== RICHARDS FLOW ===============================================================
  0 2r: 6.86E-06 2x: 0.00E+00 2u: 0.00E+00 ir: 2.16E-06 iu: 0.00E+00 rsn:   0
  1 2r: 4.66E-08 2x: 7.76E+06 2u: 4.00E+03 ir: 3.29E-08 iu: 1.67E+02 rsn:   0
  2 2r: 4.03E-11 2x: 7.76E+06 2u: 6.59E+00 ir: 2.84E-11 iu: 3.82E-01 rsn: itol_upd

 Step     10 Time=  1.16781E-02 Dt=  5.84475E-03 [y] conv_reason: 11
  newton =   2 [      20] linear =   136 [       762] cuts =  0 [   0]
  --> SNES Linear/Non-Linear Iterations = 136 / 2
  --> SNES Residual: 0.403430E-10 0.403430E-14 0.284480E-10
  --> max change: dpmx=   1.6725E+02

== REACTIVE TRANSPORT ==========================================================
  0 2r: 1.18E-19 2x: 0.00E+00 2u: 0.00E+00 ir: 5.14E-20 iu: 0.00E+00 rsn:   0
  1 2r: 2.48E-25 2x: 1.00E-08 2u: 8.02E-17 ir: 1.29E-25 iu: 1.21E-17 rsn: stol

 Step     10 Time=  1.16781E-02 Dt=  5.84475E-03 [y] conv_reason: 4
  newton =   1 [      10] linear =    10 [        45] cuts =  0 [   0]
  --> SNES Linear/Non-Linear Iterations = 10 / 1
  --> SNES Residual: 0.247509E-24 0.247509E-24 0.128979E-24
  --> max change:  dcmx=   1.2075E-17  dc/dt=   6.5510E-23 [mol/s]
 Maximum Pore Velocity:   2.7716E+01 [m/y]

== RICHARDS FLOW ===============================================================
  0 2r: 1.39E-05 2x: 0.00E+00 2u: 0.00E+00 ir: 4.32E-06 iu: 0.00E+00 rsn:   0
  1 2r: 3.06E-07 2x: 7.77E+06 2u: 8.13E+03 ir: 2.13E-07 iu: 3.30E+02 rsn:   0
  2 2r: 3.92E-10 2x: 7.77E+06 2u: 2.02E+01 ir: 2.72E-10 iu: 1.26E+00 rsn:   0
  3 2r: 3.05E-16 2x: 7.77E+06 2u: 1.62E-02 ir: 1.70E-17 iu: 5.81E-04 rsn: itol_upd

 Step     11 Time=  2.33676E-02 Dt=  1.16895E-02 [y] conv_reason: 11
  newton =   3 [      23] linear =   261 [      1023] cuts =  0 [   0]
  --> SNES Linear/Non-Linear Iterations = 261 / 3
  --> SNES Residual: 0.305114E-15 0.305114E-19 0.170334E-16
  --> max change: dpmx=   3.2982E+02

== REACTIVE TRANSPORT ==========================================================
  0 2r: 1.77E-19 2x: 0.00E+00 2u: 0.00E+00 ir: 5.69E-20 iu: 0.00E+00 rsn:   0
  1 2r: 4.24E-25 2x: 1.00E-08 2u: 1.50E-16 ir: 1.07E-25 iu: 1.09E-17 rsn:   0
  2 2r: 2.05E-27 2x: 1.00E-08 2u: 2.75E-21 ir: 1.45E-28 iu: 2.65E-22 rsn: stol

 Step     11 Time=  2.33676E-02 Dt=  1.16895E-02 [y] conv_reason: 4
  newton =   2 [      12] linear =    26 [        71] cuts =  0 [   0]
  --> SNES Linear/Non-Linear Iterations = 26 / 2
  --> SNES Residual: 0.204568E-26 0.204568E-26 0.145150E-27
  --> max change:  dcmx=   1.0887E-17  dc/dt=   2.9532E-23 [mol/s]
 Maximum Pore Velocity:   2.7665E+01 [m/y]
 CFL Limiting ( 1.0):   2.3379E-02 ->   1.8171E-02 [y]

== RICHARDS FLOW ===============================================================
  0 2r: 2.87E-05 2x: 0.00E+00 2u: 0.00E+00 ir: 8.65E-06 iu: 0.00E+00 rsn:   0
  1 2r: 2.78E-07 2x: 7.78E+06 2u: 1.75E+04 ir: 1.38E-07 iu: 6.79E+02 rsn:   0
  2 2r: 5.19E-10 2x: 7.78E+06 2u: 1.06E+02 ir: 2.92E-10 iu: 5.52E+00 rsn:   0
  3 2r: 8.81E-15 2x: 7.78E+06 2u: 2.14E-01 ir: 1.60E-15 iu: 6.11E-03 rsn: itol_upd

 Step     12 Time=  4.67466E-02 Dt=  2.33790E-02 [y] conv_reason: 11
  newton =   3 [      26] linear =   287 [      1310] cuts =  0 [   0]
  --> SNES Linear/Non-Linear Iterations = 287 / 3
  --> SNES Residual: 0.881386E-14 0.881386E-18 0.159723E-14
  --> max change: dpmx=   6.7810E+02

== REACTIVE TRANSPORT ==========================================================
  0 2r: 2.25E-19 2x: 0.00E+00 2u: 0.00E+00 ir: 5.45E-20 iu: 0.00E+00 rsn:   0
  1 2r: 5.05E-25 2x: 1.00E-08 2u: 2.40E-16 ir: 1.03E-25 iu: 1.19E-17 rsn:   0
  2 2r: 1.92E-27 2x: 1.00E-08 2u: 5.52E-21 ir: 1.40E-28 iu: 4.41E-22 rsn: rtol

 Step     12 Time=  4.15382E-02 Dt=  1.81707E-02 [y] conv_reason: 3
  newton =   2 [      14] linear =    30 [       101] cuts =  0 [   0]
  --> SNES Linear/Non-Linear Iterations = 30 / 2
  --> SNES Residual: 0.191885E-26 0.191885E-26 0.139628E-27
  --> max change:  dcmx=   1.1898E-17  dc/dt=   2.0763E-23 [mol/s]
 Maximum Pore Velocity:   2.7399E+01 [m/y]
 CFL Limiting ( 1.0):   3.6341E-02 ->   2.2017E-02 [y]

== REACTIVE TRANSPORT ==========================================================
  0 2r: 6.74E-20 2x: 0.00E+00 2u: 0.00E+00 ir: 1.62E-20 iu: 0.00E+00 rsn:   0
  1 2r: 3.11E-25 2x: 1.00E-08 2u: 6.99E-17 ir: 1.02E-25 iu: 3.57E-18 rsn: stol

 Step     13 Time=  4.67466E-02 Dt=  5.20835E-03 [y] conv_reason: 4
  newton =   1 [      15] linear =     9 [       110] cuts =  0 [   0]
  --> SNES Linear/Non-Linear Iterations = 9 / 1
  --> SNES Residual: 0.311395E-24 0.311395E-24 0.101921E-24
  --> max change:  dcmx=   3.5722E-18  dc/dt=   2.1748E-23 [mol/s]
 Maximum Pore Velocity:   2.7399E+01 [m/y]

== RICHARDS FLOW ===============================================================
  0 2r: 6.18E-05 2x: 0.00E+00 2u: 0.00E+00 ir: 1.73E-05 iu: 0.00E+00 rsn:   0
  1 2r: 6.60E-07 2x: 7.81E+06 2u: 3.93E+04 ir: 3.57E-07 iu: 1.36E+03 rsn:   0
  2 2r: 2.48E-09 2x: 7.81E+06 2u: 4.81E+02 ir: 9.97E-10 iu: 2.21E+01 rsn:   0
  3 2r: 2.51E-14 2x: 7.81E+06 2u: 1.05E+00 ir: 5.45E-15 iu: 2.74E-02 rsn: itol_upd

 Step     13 Time=  9.35046E-02 Dt=  4.67580E-02 [y] conv_reason: 11
  newton =   3 [      29] linear =   341 [      1651] cuts =  0 [   0]
  --> SNES Linear/Non-Linear Iterations = 341 / 3
  --> SNES Residual: 0.251042E-13 0.251042E-17 0.544660E-14
  --> max change: dpmx=   1.3607E+03

== REACTIVE TRANSPORT ==========================================================
  0 2r: 2.11E-19 2x: 0.00E+00 2u: 0.00E+00 ir: 3.00E-20 iu: 0.00E+00 rsn:   0
  1 2r: 7.32E-25 2x: 1.00E-08 2u: 3.02E-16 ir: 1.44E-25 iu: 1.78E-17 rsn:   0
  2 2r: 1.82E-27 2x: 1.00E-08 2u: 9.90E-21 ir: 1.27E-28 iu: 7.46E-22 rsn: rtol

 Step     14 Time=  6.87639E-02 Dt=  2.20173E-02 [y] conv_reason: 3
  newton =   2 [      17] linear =    29 [       139] cuts =  0 [   0]
  --> SNES Linear/Non-Linear Iterations = 29 / 2
  --> SNES Residual: 0.181602E-26 0.181602E-26 0.127007E-27
  --> max change:  dcmx=   1.7761E-17  dc/dt=   2.5580E-23 [mol/s]
 Maximum Pore Velocity:   2.6449E+01 [m/y]
 CFL Limiting ( 1.0):   4.4035E-02 ->   3.7809E-02 [y]

== REACTIVE TRANSPORT ==========================================================
  0 2r: 2.38E-19 2x: 0.00E+00 2u: 0.00E+00 ir: 3.40E-20 iu: 0.00E+00 rsn:   0
  1 2r: 6.96E-25 2x: 1.00E-08 2u: 3.58E-16 ir: 1.35E-25 iu: 2.02E-17 rsn:   0
  2 2r: 1.90E-27 2x: 1.00E-08 2u: 1.05E-20 ir: 1.42E-28 iu: 7.54E-22 rsn: rtol

 Step     15 Time=  9.35046E-02 Dt=  2.47407E-02 [y] conv_reason: 3
  newton =   2 [      19] linear =    31 [       170] cuts =  0 [   0]
  --> SNES Linear/Non-Linear Iterations = 31 / 2
  --> SNES Residual: 0.190176E-26 0.190176E-26 0.141601E-27
  --> max change:  dcmx=   2.0220E-17  dc/dt=   2.5916E-23 [mol/s]
 Maximum Pore Velocity:   2.6447E+01 [m/y]
 CFL Limiting ( 1.0):   4.9481E-02 ->   3.7812E-02 [y]

== RICHARDS FLOW ===============================================================
  0 2r: 1.38E-04 2x: 0.00E+00 2u: 0.00E+00 ir: 3.46E-05 iu: 0.00E+00 rsn:   0
  1 2r: 1.33E-06 2x: 7.87E+06 2u: 8.58E+04 ir: 5.23E-07 iu: 2.77E+03 rsn:   0
  2 2r: 1.30E-08 2x: 7.87E+06 2u: 2.33E+03 ir: 8.49E-09 iu: 9.96E+01 rsn:   0
  3 2r: 1.02E-12 2x: 7.87E+06 2u: 4.28E+00 ir: 2.74E-13 iu: 3.70E-01 rsn: itol_upd

 Step     14 Time=  1.75696E-01 Dt=  8.21918E-02 [y] conv_reason: 11
  newton =   3 [      32] linear =   322 [      1973] cuts =  0 [   0]
  --> SNES Linear/Non-Linear Iterations = 322 / 3
  --> SNES Residual: 0.102034E-11 0.102034E-15 0.273568E-12
  --> max change: dpmx=   2.7539E+03

== REACTIVE TRANSPORT ==========================================================
  0 2r: 2.50E-19 2x: 0.00E+00 2u: 0.00E+00 ir: 3.46E-20 iu: 0.00E+00 rsn:   0
  1 2r: 1.56E-24 2x: 1.00E-08 2u: 6.35E-16 ir: 2.90E-25 iu: 7.77E-17 rsn:   0
  2 2r: 1.74E-27 2x: 1.00E-08 2u: 3.57E-20 ir: 1.25E-28 iu: 2.27E-21 rsn: rtol

 Step     16 Time=  1.31316E-01 Dt=  3.78116E-02 [y] conv_reason: 3
  newton =   2 [      21] linear =    36 [       206] cuts =  0 [   0]
  --> SNES Linear/Non-Linear Iterations = 36 / 2
  --> SNES Residual: 0.173535E-26 0.173535E-26 0.124640E-27
  --> max change:  dcmx=   7.7674E-17  dc/dt=   6.5140E-23 [mol/s]
 Maximum Pore Velocity:   2.4218E+01 [m/y]
 CFL Limiting ( 1.0):   7.5623E-02 ->   4.1292E-02 [y]

== REACTIVE TRANSPORT ==========================================================
  0 2r: 2.94E-19 2x: 0.00E+00 2u: 0.00E+00 ir: 4.08E-20 iu: 0.00E+00 rsn:   0
  1 2r: 1.40E-24 2x: 1.00E-08 2u: 7.79E-16 ir: 2.65E-25 iu: 7.28E-17 rsn:   0
  2 2r: 1.75E-27 2x: 1.00E-08 2u: 3.67E-20 ir: 1.23E-28 iu: 2.29E-21 rsn: rtol

 Step     17 Time=  1.75696E-01 Dt=  4.43802E-02 [y] conv_reason: 3
  newton =   2 [      23] linear =    39 [       245] cuts =  0 [   0]
  --> SNES Linear/Non-Linear Iterations = 39 / 2
  --> SNES Residual: 0.174692E-26 0.174692E-26 0.123062E-27
  --> max change:  dcmx=   7.2782E-17  dc/dt=   5.2003E-23 [mol/s]
 Maximum Pore Velocity:   2.4212E+01 [m/y]
 CFL Limiting ( 1.0):   8.2192E-02 ->   4.1302E-02 [y]

== RICHARDS FLOW ===============================================================
  0 2r: 2.79E-04 2x: 0.00E+00 2u: 0.00E+00 ir: 6.11E-05 iu: 0.00E+00 rsn:   0
  1 2r: 4.16E-06 2x: 7.97E+06 2u: 1.43E+05 ir: 2.79E-06 iu: 4.83E+03 rsn:   0
  2 2r: 5.44E-08 2x: 7.98E+06 2u: 8.33E+03 ir: 2.31E-08 iu: 4.29E+02 rsn:   0
  3 2r: 7.91E-11 2x: 7.98E+06 2u: 8.55E+01 ir: 5.59E-11 iu: 7.72E+00 rsn:   0
  4 2r: 6.23E-15 2x: 7.98E+06 2u: 7.85E-02 ir: 1.25E-15 iu: 2.79E-03 rsn: itol_upd

 Step     15 Time=  2.57888E-01 Dt=  8.21918E-02 [y] conv_reason: 11
  newton =   4 [      36] linear =   492 [      2465] cuts =  0 [   0]
  --> SNES Linear/Non-Linear Iterations = 492 / 4
  --> SNES Residual: 0.623273E-14 0.623273E-18 0.124801E-14
  --> max change: dpmx=   4.8323E+03

== REACTIVE TRANSPORT ==========================================================
  0 2r: 3.74E-19 2x: 0.00E+00 2u: 0.00E+00 ir: 9.79E-20 iu: 0.00E+00 rsn:   0
  1 2r: 3.51E-24 2x: 1.00E-08 2u: 1.50E-15 ir: 8.79E-25 iu: 1.93E-16 rsn:   0
  2 2r: 1.65E-27 2x: 1.00E-08 2u: 6.09E-20 ir: 1.81E-28 iu: 4.01E-21 rsn: rtol

 Step     18 Time=  2.16998E-01 Dt=  4.13019E-02 [y] conv_reason: 3
  newton =   2 [      25] linear =    35 [       280] cuts =  0 [   0]
  --> SNES Linear/Non-Linear Iterations = 35 / 2
  --> SNES Residual: 0.165393E-26 0.165393E-26 0.181438E-27
  --> max change:  dcmx=   1.9312E-16  dc/dt=   1.4827E-22 [mol/s]
 Maximum Pore Velocity:   3.5001E+01 [m/y]
 CFL Limiting ( 1.0):   8.2192E-02 ->   9.4088E-03 [y]

== REACTIVE TRANSPORT ==========================================================
  0 2r: 9.26E-20 2x: 0.00E+00 2u: 0.00E+00 ir: 2.43E-20 iu: 0.00E+00 rsn:   0
  1 2r: 8.32E-25 2x: 1.00E-08 2u: 3.24E-16 ir: 2.08E-25 iu: 3.14E-17 rsn:   0
  2 2r: 1.64E-27 2x: 1.00E-08 2u: 4.46E-21 ir: 1.58E-28 iu: 4.18E-22 rsn: stol

 Step     19 Time=  2.26407E-01 Dt=  9.40880E-03 [y] conv_reason: 4
  newton =   2 [      27] linear =    22 [       302] cuts =  0 [   0]
  --> SNES Linear/Non-Linear Iterations = 22 / 2
  --> SNES Residual: 0.163777E-26 0.163777E-26 0.157772E-27
  --> max change:  dcmx=   3.1447E-17  dc/dt=   1.0598E-22 [mol/s]
 Maximum Pore Velocity:   3.4643E+01 [m/y]
 CFL Limiting ( 1.0):   1.8818E-02 ->   9.5403E-03 [y]

== REACTIVE TRANSPORT ==========================================================
  0 2r: 9.26E-20 2x: 0.00E+00 2u: 0.00E+00 ir: 2.44E-20 iu: 0.00E+00 rsn:   0
  1 2r: 1.44E-24 2x: 1.00E-08 2u: 3.24E-16 ir: 2.82E-25 iu: 2.75E-17 rsn:   0
  2 2r: 1.74E-27 2x: 1.00E-08 2u: 7.95E-21 ir: 3.57E-28 iu: 7.44E-22 rsn: stol

 Step     20 Time=  2.35947E-01 Dt=  9.54031E-03 [y] conv_reason: 4
  newton =   2 [      29] linear =    21 [       323] cuts =  0 [   0]
  --> SNES Linear/Non-Linear Iterations = 21 / 2
  --> SNES Residual: 0.173715E-26 0.173715E-26 0.356565E-27
  --> max change:  dcmx=   2.7543E-17  dc/dt=   9.1546E-23 [mol/s]
 Maximum Pore Velocity:   3.4287E+01 [m/y]
 CFL Limiting ( 1.0):   1.9081E-02 ->   9.6737E-03 [y]

== REACTIVE TRANSPORT ==========================================================
  0 2r: 9.34E-20 2x: 0.00E+00 2u: 0.00E+00 ir: 2.47E-20 iu: 0.00E+00 rsn:   0
  1 2r: 1.57E-24 2x: 1.00E-08 2u: 3.28E-16 ir: 2.68E-25 iu: 2.62E-17 rsn:   0
  2 2r: 1.70E-27 2x: 1.00E-08 2u: 8.82E-21 ir: 1.40E-28 iu: 8.26E-22 rsn: stol

 Step     21 Time=  2.45621E-01 Dt=  9.67365E-03 [y] conv_reason: 4
  newton =   2 [      31] linear =    21 [       344] cuts =  0 [   0]
  --> SNES Linear/Non-Linear Iterations = 21 / 2
  --> SNES Residual: 0.169574E-26 0.169574E-26 0.140417E-27
  --> max change:  dcmx=   2.6155E-17  dc/dt=   8.5736E-23 [mol/s]
 Maximum Pore Velocity:   3.3934E+01 [m/y]
 CFL Limiting ( 1.0):   1.9347E-02 ->   9.8089E-03 [y]

== REACTIVE TRANSPORT ==========================================================
  0 2r: 9.45E-20 2x: 0.00E+00 2u: 0.00E+00 ir: 2.50E-20 iu: 0.00E+00 rsn:   0
  1 2r: 1.57E-24 2x: 1.00E-08 2u: 3.34E-16 ir: 2.70E-25 iu: 2.62E-17 rsn:   0
  2 2r: 1.65E-27 2x: 1.00E-08 2u: 8.99E-21 ir: 1.17E-28 iu: 8.42E-22 rsn: stol

 Step     22 Time=  2.55430E-01 Dt=  9.80886E-03 [y] conv_reason: 4
  newton =   2 [      33] linear =    23 [       367] cuts =  0 [   0]
  --> SNES Linear/Non-Linear Iterations = 23 / 2
  --> SNES Residual: 0.165185E-26 0.165185E-26 0.116751E-27
  --> max change:  dcmx=   2.6174E-17  dc/dt=   8.4614E-23 [mol/s]
 Maximum Pore Velocity:   3.3584E+01 [m/y]
 CFL Limiting ( 1.0):   1.9618E-02 ->   9.9460E-03 [y]

== REACTIVE TRANSPORT ==========================================================
  0 2r: 3.86E-20 2x: 0.00E+00 2u: 0.00E+00 ir: 7.83E-21 iu: 0.00E+00 rsn:   0
  1 2r: 3.76E-25 2x: 1.00E-08 2u: 8.37E-17 ir: 3.42E-25 iu: 6.54E-18 rsn: stol

 Step     23 Time=  2.57888E-01 Dt=  2.45829E-03 [y] conv_reason: 4
  newton =   1 [      34] linear =     7 [       374] cuts =  0 [   0]
  --> SNES Linear/Non-Linear Iterations = 7 / 1
  --> SNES Residual: 0.375996E-24 0.375996E-24 0.342416E-24
  --> max change:  dcmx=   6.5449E-18  dc/dt=   8.4423E-23 [mol/s]
 Maximum Pore Velocity:   3.3497E+01 [m/y]

== RICHARDS FLOW ===============================================================
  0 2r: 3.12E-04 2x: 0.00E+00 2u: 0.00E+00 ir: 6.28E-05 iu: 0.00E+00 rsn:   0
  1 2r: 1.55E-05 2x: 8.02E+06 2u: 8.47E+04 ir: 1.11E-05 iu: 4.73E+03 rsn:   0
  2 2r: 2.45E-07 2x: 8.03E+06 2u: 7.38E+03 ir: 1.23E-07 iu: 7.75E+02 rsn:   0
  3 2r: 2.73E-10 2x: 8.03E+06 2u: 2.31E+02 ir: 5.65E-11 iu: 4.03E+01 rsn:   0
  4 2r: 3.45E-13 2x: 8.03E+06 2u: 1.04E+00 ir: 4.84E-14 iu: 1.27E-01 rsn: itol_upd

 Step     16 Time=  2.73973E-01 Dt=  1.60845E-02 [y] conv_reason: 11
  newton =   4 [      40] linear =   308 [      2773] cuts =  0 [   0]
  --> SNES Linear/Non-Linear Iterations = 308 / 4
  --> SNES Residual: 0.344989E-12 0.344989E-16 0.483944E-13
  --> max change: dpmx=   4.7223E+03

== REACTIVE TRANSPORT ==========================================================
  0 2r: 1.14E-18 2x: 0.00E+00 2u: 0.00E+00 ir: 4.29E-19 iu: 0.00E+00 rsn:   0
  1 2r: 5.77E-24 2x: 1.00E-08 2u: 1.27E-15 ir: 1.82E-24 iu: 1.28E-16 rsn:   0
  2 2r: 3.03E-27 2x: 1.00E-08 2u: 2.12E-20 ir: 8.47E-28 iu: 2.48E-21 rsn: rtol

 Step     24 Time=  2.67834E-01 Dt=  9.94596E-03 [y] conv_reason: 3
  newton =   2 [      36] linear =    27 [       401] cuts =  0 [   0]
  --> SNES Linear/Non-Linear Iterations = 27 / 2
  --> SNES Residual: 0.303462E-26 0.303462E-26 0.847237E-27
  --> max change:  dcmx=   1.2764E-16  dc/dt=   4.0695E-22 [mol/s]
 Maximum Pore Velocity:   1.1612E+02 [m/y]
 CFL Limiting ( 1.0):   1.9892E-02 ->   2.7902E-03 [y]

== REACTIVE TRANSPORT ==========================================================
  0 2r: 3.69E-19 2x: 0.00E+00 2u: 0.00E+00 ir: 1.30E-19 iu: 0.00E+00 rsn:   0
  1 2r: 5.50E-24 2x: 1.00E-08 2u: 3.68E-16 ir: 1.97E-24 iu: 3.63E-17 rsn:   0
  2 2r: 2.56E-27 2x: 1.00E-08 2u: 7.54E-21 ir: 4.13E-28 iu: 1.16E-21 rsn: rtol

 Step     25 Time=  2.70624E-01 Dt=  2.79019E-03 [y] conv_reason: 3
  newton =   2 [      38] linear =    17 [       418] cuts =  0 [   0]
  --> SNES Linear/Non-Linear Iterations = 17 / 2
  --> SNES Residual: 0.256114E-26 0.256114E-26 0.413363E-27
  --> max change:  dcmx=   3.6317E-17  dc/dt=   4.1274E-22 [mol/s]
 Maximum Pore Velocity:   1.1427E+02 [m/y]
 CFL Limiting ( 1.0):   5.5804E-03 ->   2.8497E-03 [y]

== REACTIVE TRANSPORT ==========================================================
  0 2r: 3.78E-19 2x: 0.00E+00 2u: 0.00E+00 ir: 1.32E-19 iu: 0.00E+00 rsn:   0
  1 2r: 8.10E-24 2x: 1.00E-08 2u: 3.83E-16 ir: 3.93E-24 iu: 3.72E-17 rsn:   0
  2 2r: 3.01E-27 2x: 1.00E-08 2u: 5.48E-21 ir: 8.87E-28 iu: 9.65E-22 rsn: rtol

 Step     26 Time=  2.73474E-01 Dt=  2.84968E-03 [y] conv_reason: 3
  newton =   2 [      40] linear =    18 [       436] cuts =  0 [   0]
  --> SNES Linear/Non-Linear Iterations = 18 / 2
  --> SNES Residual: 0.301096E-26 0.301096E-26 0.886680E-27
  --> max change:  dcmx=   3.7220E-17  dc/dt=   4.1417E-22 [mol/s]
 Maximum Pore Velocity:   1.1243E+02 [m/y]
 CFL Limiting ( 1.0):   5.6994E-03 ->   2.9104E-03 [y]

== REACTIVE TRANSPORT ==========================================================
  0 2r: 1.40E-19 2x: 0.00E+00 2u: 0.00E+00 ir: 3.17E-20 iu: 0.00E+00 rsn:   0
  1 2r: 1.51E-25 2x: 1.00E-08 2u: 6.73E-17 ir: 1.11E-25 iu: 6.52E-18 rsn: stol

 Step     27 Time=  2.73973E-01 Dt=  4.98653E-04 [y] conv_reason: 4
  newton =   1 [      41] linear =     7 [       443] cuts =  0 [   0]
  --> SNES Linear/Non-Linear Iterations = 7 / 1
  --> SNES Residual: 0.150660E-24 0.150660E-24 0.110895E-24
  --> max change:  dcmx=   6.5164E-18  dc/dt=   4.1438E-22 [mol/s]
 Maximum Pore Velocity:   1.1212E+02 [m/y]

 --> appending to hdf5 output file: 4-hw7-2D_solute.h5
      0.07 Seconds to write HDF5 file.

== RICHARDS FLOW ===============================================================
  0 2r: 6.34E-05 2x: 0.00E+00 2u: 0.00E+00 ir: 1.74E-05 iu: 0.00E+00 rsn:   0
  1 2r: 1.03E-05 2x: 8.16E+06 2u: 1.85E+05 ir: 4.22E-06 iu: 7.19E+03 rsn:   0
  2 2r: 1.36E-06 2x: 8.15E+06 2u: 1.90E+04 ir: 5.96E-07 iu: 1.63E+03 rsn:   0
  3 2r: 3.41E-09 2x: 8.15E+06 2u: 7.61E+02 ir: 8.88E-10 iu: 8.90E+01 rsn:   0
  4 2r: 1.70E-12 2x: 8.15E+06 2u: 1.37E+01 ir: 2.62E-13 iu: 4.23E-01 rsn: itol_upd

 Step     17 Time=  3.56164E-01 Dt=  8.21918E-02 [y] conv_reason: 11
  newton =   4 [      44] linear =   457 [      3230] cuts =  0 [   0]
  --> SNES Linear/Non-Linear Iterations = 457 / 4
  --> SNES Residual: 0.169934E-11 0.169934E-15 0.261678E-12
  --> max change: dpmx=   5.5503E+03

== REACTIVE TRANSPORT ==========================================================
  0 2r: 4.71E-20 2x: 0.00E+00 2u: 0.00E+00 ir: 8.45E-21 iu: 0.00E+00 rsn:   0
  1 2r: 8.63E-25 2x: 1.00E-08 2u: 1.33E-16 ir: 2.97E-25 iu: 1.03E-17 rsn:   0
  2 2r: 1.66E-27 2x: 1.00E-08 2u: 1.42E-21 ir: 2.30E-28 iu: 3.36E-22 rsn: stol

 Step     28 Time=  2.76883E-01 Dt=  2.91044E-03 [y] conv_reason: 4
  newton =   2 [      43] linear =    14 [       457] cuts =  0 [   0]
  --> SNES Linear/Non-Linear Iterations = 14 / 2
  --> SNES Residual: 0.166370E-26 0.166370E-26 0.230347E-27
  --> max change:  dcmx=   1.0261E-17  dc/dt=   1.1179E-22 [mol/s]
 Maximum Pore Velocity:   4.0264E+01 [m/y]

== REACTIVE TRANSPORT ==========================================================
  0 2r: 6.08E-20 2x: 0.00E+00 2u: 0.00E+00 ir: 1.37E-20 iu: 0.00E+00 rsn:   0
  1 2r: 1.09E-24 2x: 1.00E-08 2u: 2.48E-16 ir: 3.23E-25 iu: 1.79E-17 rsn:   0
  2 2r: 1.59E-27 2x: 1.00E-08 2u: 3.14E-21 ir: 1.40E-28 iu: 4.96E-22 rsn: stol

 Step     29 Time=  2.82704E-01 Dt=  5.82087E-03 [y] conv_reason: 4
  newton =   2 [      45] linear =    19 [       476] cuts =  0 [   0]
  --> SNES Linear/Non-Linear Iterations = 19 / 2
  --> SNES Residual: 0.158676E-26 0.158676E-26 0.140417E-27
  --> max change:  dcmx=   1.7933E-17  dc/dt=   9.7694E-23 [mol/s]
 Maximum Pore Velocity:   4.0245E+01 [m/y]
 CFL Limiting ( 1.0):   1.1642E-02 ->   9.6124E-03 [y]

== REACTIVE TRANSPORT ==========================================================
  0 2r: 8.48E-20 2x: 0.00E+00 2u: 0.00E+00 ir: 2.22E-20 iu: 0.00E+00 rsn:   0
  1 2r: 1.14E-24 2x: 1.00E-08 2u: 3.87E-16 ir: 2.65E-25 iu: 2.60E-17 rsn:   0
  2 2r: 1.59E-27 2x: 1.00E-08 2u: 4.58E-21 ir: 1.70E-28 iu: 6.11E-22 rsn: stol

 Step     30 Time=  2.92316E-01 Dt=  9.61241E-03 [y] conv_reason: 4
  newton =   2 [      47] linear =    22 [       498] cuts =  0 [   0]
  --> SNES Linear/Non-Linear Iterations = 22 / 2
  --> SNES Residual: 0.158996E-26 0.158996E-26 0.170394E-27
  --> max change:  dcmx=   2.5955E-17  dc/dt=   8.5622E-23 [mol/s]
 Maximum Pore Velocity:   4.0214E+01 [m/y]
 CFL Limiting ( 1.0):   1.9225E-02 ->   9.6322E-03 [y]

== REACTIVE TRANSPORT ==========================================================
  0 2r: 8.41E-20 2x: 0.00E+00 2u: 0.00E+00 ir: 2.22E-20 iu: 0.00E+00 rsn:   0
  1 2r: 1.17E-24 2x: 1.00E-08 2u: 3.75E-16 ir: 3.20E-25 iu: 2.35E-17 rsn:   0
  2 2r: 1.64E-27 2x: 1.00E-08 2u: 4.32E-21 ir: 1.45E-28 iu: 6.05E-22 rsn: stol

 Step     31 Time=  3.01948E-01 Dt=  9.63215E-03 [y] conv_reason: 4
  newton =   2 [      49] linear =    20 [       518] cuts =  0 [   0]
  --> SNES Linear/Non-Linear Iterations = 20 / 2
  --> SNES Residual: 0.163586E-26 0.163586E-26 0.145150E-27
  --> max change:  dcmx=   2.3458E-17  dc/dt=   7.7226E-23 [mol/s]
 Maximum Pore Velocity:   4.0183E+01 [m/y]
 CFL Limiting ( 1.0):   1.9264E-02 ->   9.6519E-03 [y]

== REACTIVE TRANSPORT ==========================================================
  0 2r: 8.38E-20 2x: 0.00E+00 2u: 0.00E+00 ir: 2.22E-20 iu: 0.00E+00 rsn:   0
  1 2r: 1.08E-24 2x: 1.00E-08 2u: 3.68E-16 ir: 3.47E-25 iu: 2.16E-17 rsn:   0
  2 2r: 1.60E-27 2x: 1.00E-08 2u: 3.68E-21 ir: 1.86E-28 iu: 4.99E-22 rsn: stol

 Step     32 Time=  3.11600E-01 Dt=  9.65194E-03 [y] conv_reason: 4
  newton =   2 [      51] linear =    21 [       539] cuts =  0 [   0]
  --> SNES Linear/Non-Linear Iterations = 21 / 2
  --> SNES Residual: 0.159812E-26 0.159812E-26 0.186171E-27
  --> max change:  dcmx=   2.1564E-17  dc/dt=   7.0846E-23 [mol/s]
 Maximum Pore Velocity:   4.0152E+01 [m/y]
 CFL Limiting ( 1.0):   1.9304E-02 ->   9.6718E-03 [y]

== REACTIVE TRANSPORT ==========================================================
  0 2r: 8.36E-20 2x: 0.00E+00 2u: 0.00E+00 ir: 2.23E-20 iu: 0.00E+00 rsn:   0
  1 2r: 1.03E-24 2x: 1.00E-08 2u: 3.63E-16 ir: 3.40E-25 iu: 2.02E-17 rsn:   0
  2 2r: 1.60E-27 2x: 1.00E-08 2u: 3.48E-21 ir: 1.25E-28 iu: 4.53E-22 rsn: stol

 Step     33 Time=  3.21272E-01 Dt=  9.67176E-03 [y] conv_reason: 4
  newton =   2 [      53] linear =    21 [       560] cuts =  0 [   0]
  --> SNES Linear/Non-Linear Iterations = 21 / 2
  --> SNES Residual: 0.160170E-26 0.160170E-26 0.124640E-27
  --> max change:  dcmx=   2.0208E-17  dc/dt=   6.6255E-23 [mol/s]
 Maximum Pore Velocity:   4.0121E+01 [m/y]
 CFL Limiting ( 1.0):   1.9344E-02 ->   9.6916E-03 [y]

== REACTIVE TRANSPORT ==========================================================
  0 2r: 8.36E-20 2x: 0.00E+00 2u: 0.00E+00 ir: 2.23E-20 iu: 0.00E+00 rsn:   0
  1 2r: 9.90E-25 2x: 1.00E-08 2u: 3.59E-16 ir: 3.31E-25 iu: 1.91E-17 rsn:   0
  2 2r: 1.61E-27 2x: 1.00E-08 2u: 3.38E-21 ir: 1.75E-28 iu: 4.20E-22 rsn: stol

 Step     34 Time=  3.30964E-01 Dt=  9.69162E-03 [y] conv_reason: 4
  newton =   2 [      55] linear =    21 [       581] cuts =  0 [   0]
  --> SNES Linear/Non-Linear Iterations = 21 / 2
  --> SNES Residual: 0.160708E-26 0.160708E-26 0.175127E-27
  --> max change:  dcmx=   1.9098E-17  dc/dt=   6.2488E-23 [mol/s]
 Maximum Pore Velocity:   4.0090E+01 [m/y]
 CFL Limiting ( 1.0):   1.9383E-02 ->   9.7115E-03 [y]

== REACTIVE TRANSPORT ==========================================================
  0 2r: 8.36E-20 2x: 0.00E+00 2u: 0.00E+00 ir: 2.24E-20 iu: 0.00E+00 rsn:   0
  1 2r: 9.58E-25 2x: 1.00E-08 2u: 3.57E-16 ir: 3.21E-25 iu: 1.83E-17 rsn:   0
  2 2r: 1.58E-27 2x: 1.00E-08 2u: 3.33E-21 ir: 1.75E-28 iu: 3.92E-22 rsn: stol

 Step     35 Time=  3.40675E-01 Dt=  9.71153E-03 [y] conv_reason: 4
  newton =   2 [      57] linear =    21 [       602] cuts =  0 [   0]
  --> SNES Linear/Non-Linear Iterations = 21 / 2
  --> SNES Residual: 0.158241E-26 0.158241E-26 0.175127E-27
  --> max change:  dcmx=   1.8274E-17  dc/dt=   5.9669E-23 [mol/s]
 Maximum Pore Velocity:   4.0059E+01 [m/y]
 CFL Limiting ( 1.0):   1.9423E-02 ->   9.7315E-03 [y]

== REACTIVE TRANSPORT ==========================================================
  0 2r: 8.37E-20 2x: 0.00E+00 2u: 0.00E+00 ir: 2.24E-20 iu: 0.00E+00 rsn:   0
  1 2r: 9.31E-25 2x: 1.00E-08 2u: 3.56E-16 ir: 3.13E-25 iu: 1.76E-17 rsn:   0
  2 2r: 1.58E-27 2x: 1.00E-08 2u: 3.30E-21 ir: 1.12E-28 iu: 3.67E-22 rsn: stol

 Step     36 Time=  3.50407E-01 Dt=  9.73148E-03 [y] conv_reason: 4
  newton =   2 [      59] linear =    20 [       622] cuts =  0 [   0]
  --> SNES Linear/Non-Linear Iterations = 20 / 2
  --> SNES Residual: 0.158238E-26 0.158238E-26 0.112018E-27
  --> max change:  dcmx=   1.7572E-17  dc/dt=   5.7259E-23 [mol/s]
 Maximum Pore Velocity:   4.0028E+01 [m/y]
 CFL Limiting ( 1.0):   1.9463E-02 ->   9.7515E-03 [y]

== REACTIVE TRANSPORT ==========================================================
  0 2r: 5.62E-20 2x: 0.00E+00 2u: 0.00E+00 ir: 1.34E-20 iu: 0.00E+00 rsn:   0
  1 2r: 1.24E-24 2x: 1.00E-08 2u: 2.10E-16 ir: 3.28E-25 iu: 1.02E-17 rsn:   0
  2 2r: 1.62E-27 2x: 1.00E-08 2u: 3.90E-21 ir: 1.78E-28 iu: 4.64E-22 rsn: stol

 Step     37 Time=  3.56164E-01 Dt=  5.75758E-03 [y] conv_reason: 4
  newton =   2 [      61] linear =    17 [       639] cuts =  0 [   0]
  --> SNES Linear/Non-Linear Iterations = 17 / 2
  --> SNES Residual: 0.161906E-26 0.161906E-26 0.178283E-27
  --> max change:  dcmx=   1.0201E-17  dc/dt=   5.6181E-23 [mol/s]
 Maximum Pore Velocity:   4.0009E+01 [m/y]
 CFL Limiting ( 1.0):   1.1515E-02 ->   9.7633E-03 [y]

== RICHARDS FLOW ===============================================================
  0 2r: 3.46E-04 2x: 0.00E+00 2u: 0.00E+00 ir: 6.30E-05 iu: 0.00E+00 rsn:   0
  1 2r: 9.02E-06 2x: 8.33E+06 2u: 2.27E+05 ir: 5.02E-06 iu: 6.48E+03 rsn:   0
  2 2r: 4.39E-08 2x: 8.33E+06 2u: 6.29E+03 ir: 1.30E-08 iu: 3.33E+02 rsn:   0
  3 2r: 2.53E-11 2x: 8.33E+06 2u: 4.66E+01 ir: 4.02E-12 iu: 4.09E+00 rsn:   0
  4 2r: 1.03E-15 2x: 8.33E+06 2u: 4.34E-01 ir: 1.84E-16 iu: 9.12E-03 rsn: itol_upd

 Step     18 Time=  4.38356E-01 Dt=  8.21918E-02 [y] conv_reason: 11
  newton =   4 [      48] linear =   595 [      3825] cuts =  0 [   0]
  --> SNES Linear/Non-Linear Iterations = 595 / 4
  --> SNES Residual: 0.102668E-14 0.102668E-18 0.184025E-15
  --> max change: dpmx=   6.2670E+03

== REACTIVE TRANSPORT ==========================================================
  0 2r: 1.45E-19 2x: 0.00E+00 2u: 0.00E+00 ir: 4.47E-20 iu: 0.00E+00 rsn:   0
  1 2r: 2.45E-24 2x: 1.00E-08 2u: 5.14E-16 ir: 6.89E-25 iu: 2.61E-17 rsn:   0
  2 2r: 1.70E-27 2x: 1.00E-08 2u: 1.16E-20 ir: 2.43E-28 iu: 1.61E-21 rsn: stol

 Step     38 Time=  3.65928E-01 Dt=  9.76329E-03 [y] conv_reason: 4
  newton =   2 [      63] linear =    24 [       663] cuts =  0 [   0]
  --> SNES Linear/Non-Linear Iterations = 24 / 2
  --> SNES Residual: 0.170099E-26 0.170099E-26 0.242969E-27
  --> max change:  dcmx=   2.6059E-17  dc/dt=   8.4637E-23 [mol/s]
 Maximum Pore Velocity:   6.3089E+01 [m/y]
 CFL Limiting ( 1.0):   1.9527E-02 ->   5.7871E-03 [y]

== REACTIVE TRANSPORT ==========================================================
  0 2r: 9.98E-20 2x: 0.00E+00 2u: 0.00E+00 ir: 2.78E-20 iu: 0.00E+00 rsn:   0
  1 2r: 1.33E-24 2x: 1.00E-08 2u: 3.09E-16 ir: 3.80E-25 iu: 1.54E-17 rsn:   0
  2 2r: 1.85E-27 2x: 1.00E-08 2u: 3.32E-21 ir: 3.17E-28 iu: 5.81E-22 rsn: stol

 Step     39 Time=  3.71715E-01 Dt=  5.78709E-03 [y] conv_reason: 4
  newton =   2 [      65] linear =    21 [       684] cuts =  0 [   0]
  --> SNES Linear/Non-Linear Iterations = 21 / 2
  --> SNES Residual: 0.184875E-26 0.184875E-26 0.317122E-27
  --> max change:  dcmx=   1.5404E-17  dc/dt=   8.4406E-23 [mol/s]
 Maximum Pore Velocity:   6.2647E+01 [m/y]
 CFL Limiting ( 1.0):   1.1574E-02 ->   5.8420E-03 [y]

== REACTIVE TRANSPORT ==========================================================
  0 2r: 1.01E-19 2x: 0.00E+00 2u: 0.00E+00 ir: 2.81E-20 iu: 0.00E+00 rsn:   0
  1 2r: 1.42E-24 2x: 1.00E-08 2u: 3.15E-16 ir: 4.06E-25 iu: 1.55E-17 rsn:   0
  2 2r: 1.77E-27 2x: 1.00E-08 2u: 3.61E-21 ir: 2.00E-28 iu: 6.25E-22 rsn: stol

 Step     40 Time=  3.77557E-01 Dt=  5.84198E-03 [y] conv_reason: 4
  newton =   2 [      67] linear =    21 [       705] cuts =  0 [   0]
  --> SNES Linear/Non-Linear Iterations = 21 / 2
  --> SNES Residual: 0.176841E-26 0.176841E-26 0.200371E-27
  --> max change:  dcmx=   1.5549E-17  dc/dt=   8.4397E-23 [mol/s]
 Maximum Pore Velocity:   6.2208E+01 [m/y]
 CFL Limiting ( 1.0):   1.1684E-02 ->   5.8974E-03 [y]

== REACTIVE TRANSPORT ==========================================================
  0 2r: 1.03E-19 2x: 0.00E+00 2u: 0.00E+00 ir: 2.83E-20 iu: 0.00E+00 rsn:   0
  1 2r: 1.48E-24 2x: 1.00E-08 2u: 3.21E-16 ir: 4.22E-25 iu: 1.57E-17 rsn:   0
  2 2r: 1.78E-27 2x: 1.00E-08 2u: 3.80E-21 ir: 3.08E-28 iu: 6.53E-22 rsn: stol

 Step     41 Time=  3.83454E-01 Dt=  5.89739E-03 [y] conv_reason: 4
  newton =   2 [      69] linear =    20 [       725] cuts =  0 [   0]
  --> SNES Linear/Non-Linear Iterations = 20 / 2
  --> SNES Residual: 0.178060E-26 0.178060E-26 0.307656E-27
  --> max change:  dcmx=   1.5705E-17  dc/dt=   8.4447E-23 [mol/s]
 Maximum Pore Velocity:   6.1771E+01 [m/y]
 CFL Limiting ( 1.0):   1.1795E-02 ->   5.9533E-03 [y]

== REACTIVE TRANSPORT ==========================================================
  0 2r: 1.03E-19 2x: 0.00E+00 2u: 0.00E+00 ir: 2.86E-20 iu: 0.00E+00 rsn:   0
  1 2r: 1.53E-24 2x: 1.00E-08 2u: 3.26E-16 ir: 4.35E-25 iu: 1.59E-17 rsn:   0
  2 2r: 1.79E-27 2x: 1.00E-08 2u: 3.97E-21 ir: 2.68E-28 iu: 6.77E-22 rsn: stol

 Step     42 Time=  3.89407E-01 Dt=  5.95332E-03 [y] conv_reason: 4
  newton =   2 [      71] linear =    20 [       745] cuts =  0 [   0]
  --> SNES Linear/Non-Linear Iterations = 20 / 2
  --> SNES Residual: 0.178874E-26 0.178874E-26 0.268213E-27
  --> max change:  dcmx=   1.5863E-17  dc/dt=   8.4491E-23 [mol/s]
 Maximum Pore Velocity:   6.1335E+01 [m/y]
 CFL Limiting ( 1.0):   1.1907E-02 ->   6.0098E-03 [y]

== REACTIVE TRANSPORT ==========================================================
  0 2r: 1.04E-19 2x: 0.00E+00 2u: 0.00E+00 ir: 2.88E-20 iu: 0.00E+00 rsn:   0
  1 2r: 1.59E-24 2x: 1.00E-08 2u: 3.31E-16 ir: 4.49E-25 iu: 1.60E-17 rsn:   0
  2 2r: 1.85E-27 2x: 1.00E-08 2u: 4.16E-21 ir: 3.94E-28 iu: 7.04E-22 rsn: stol

 Step     43 Time=  3.95417E-01 Dt=  6.00979E-03 [y] conv_reason: 4
  newton =   2 [      73] linear =    20 [       765] cuts =  0 [   0]
  --> SNES Linear/Non-Linear Iterations = 20 / 2
  --> SNES Residual: 0.185105E-26 0.185105E-26 0.394430E-27
  --> max change:  dcmx=   1.6019E-17  dc/dt=   8.4524E-23 [mol/s]
 Maximum Pore Velocity:   6.0902E+01 [m/y]
 CFL Limiting ( 1.0):   1.2020E-02 ->   6.0668E-03 [y]

== REACTIVE TRANSPORT ==========================================================
  0 2r: 1.05E-19 2x: 0.00E+00 2u: 0.00E+00 ir: 2.91E-20 iu: 0.00E+00 rsn:   0
  1 2r: 1.66E-24 2x: 1.00E-08 2u: 3.35E-16 ir: 4.67E-25 iu: 1.62E-17 rsn:   0
  2 2r: 1.79E-27 2x: 1.00E-08 2u: 4.38E-21 ir: 2.19E-28 iu: 7.36E-22 rsn: stol

 Step     44 Time=  4.01484E-01 Dt=  6.06679E-03 [y] conv_reason: 4
  newton =   2 [      75] linear =    20 [       785] cuts =  0 [   0]
  --> SNES Linear/Non-Linear Iterations = 20 / 2
  --> SNES Residual: 0.179313E-26 0.179313E-26 0.219303E-27
  --> max change:  dcmx=   1.6176E-17  dc/dt=   8.4549E-23 [mol/s]
 Maximum Pore Velocity:   6.0471E+01 [m/y]
 CFL Limiting ( 1.0):   1.2134E-02 ->   6.1243E-03 [y]

== REACTIVE TRANSPORT ==========================================================
  0 2r: 1.06E-19 2x: 0.00E+00 2u: 0.00E+00 ir: 2.93E-20 iu: 0.00E+00 rsn:   0
  1 2r: 1.74E-24 2x: 1.00E-08 2u: 3.40E-16 ir: 4.87E-25 iu: 1.63E-17 rsn:   0
  2 2r: 1.77E-27 2x: 1.00E-08 2u: 4.62E-21 ir: 2.07E-28 iu: 7.72E-22 rsn: stol

 Step     45 Time=  4.07608E-01 Dt=  6.12433E-03 [y] conv_reason: 4
  newton =   2 [      77] linear =    20 [       805] cuts =  0 [   0]
  --> SNES Linear/Non-Linear Iterations = 20 / 2
  --> SNES Residual: 0.176877E-26 0.176877E-26 0.206682E-27
  --> max change:  dcmx=   1.6333E-17  dc/dt=   8.4568E-23 [mol/s]
 Maximum Pore Velocity:   6.0042E+01 [m/y]
 CFL Limiting ( 1.0):   1.2249E-02 ->   6.1824E-03 [y]

== REACTIVE TRANSPORT ==========================================================
  0 2r: 1.07E-19 2x: 0.00E+00 2u: 0.00E+00 ir: 2.96E-20 iu: 0.00E+00 rsn:   0
  1 2r: 1.82E-24 2x: 1.00E-08 2u: 3.44E-16 ir: 5.08E-25 iu: 1.65E-17 rsn:   0
  2 2r: 1.77E-27 2x: 1.00E-08 2u: 4.87E-21 ir: 2.00E-28 iu: 8.10E-22 rsn: stol

 Step     46 Time=  4.13791E-01 Dt=  6.18242E-03 [y] conv_reason: 4
  newton =   2 [      79] linear =    20 [       825] cuts =  0 [   0]
  --> SNES Linear/Non-Linear Iterations = 20 / 2
  --> SNES Residual: 0.176568E-26 0.176568E-26 0.200371E-27
  --> max change:  dcmx=   1.6491E-17  dc/dt=   8.4583E-23 [mol/s]
 Maximum Pore Velocity:   5.9615E+01 [m/y]
 CFL Limiting ( 1.0):   1.2365E-02 ->   6.2411E-03 [y]

== REACTIVE TRANSPORT ==========================================================
  0 2r: 1.08E-19 2x: 0.00E+00 2u: 0.00E+00 ir: 2.99E-20 iu: 0.00E+00 rsn:   0
  1 2r: 1.90E-24 2x: 1.00E-08 2u: 3.48E-16 ir: 5.29E-25 iu: 1.66E-17 rsn:   0
  2 2r: 1.91E-27 2x: 1.00E-08 2u: 5.14E-21 ir: 2.93E-28 iu: 8.50E-22 rsn: stol

 Step     47 Time=  4.20032E-01 Dt=  6.24106E-03 [y] conv_reason: 4
  newton =   2 [      81] linear =    20 [       845] cuts =  0 [   0]
  --> SNES Linear/Non-Linear Iterations = 20 / 2
  --> SNES Residual: 0.191056E-26 0.191056E-26 0.293456E-27
  --> max change:  dcmx=   1.6650E-17  dc/dt=   8.4595E-23 [mol/s]
 Maximum Pore Velocity:   5.9190E+01 [m/y]
 CFL Limiting ( 1.0):   1.2482E-02 ->   6.3003E-03 [y]

== REACTIVE TRANSPORT ==========================================================
  0 2r: 1.08E-19 2x: 0.00E+00 2u: 0.00E+00 ir: 3.01E-20 iu: 0.00E+00 rsn:   0
  1 2r: 1.98E-24 2x: 1.00E-08 2u: 3.53E-16 ir: 5.52E-25 iu: 1.68E-17 rsn:   0
  2 2r: 1.78E-27 2x: 1.00E-08 2u: 5.41E-21 ir: 2.37E-28 iu: 8.90E-22 rsn: stol

 Step     48 Time=  4.26332E-01 Dt=  6.30025E-03 [y] conv_reason: 4
  newton =   2 [      83] linear =    20 [       865] cuts =  0 [   0]
  --> SNES Linear/Non-Linear Iterations = 20 / 2
  --> SNES Residual: 0.178410E-26 0.178410E-26 0.236658E-27
  --> max change:  dcmx=   1.6810E-17  dc/dt=   8.4605E-23 [mol/s]
 Maximum Pore Velocity:   5.8767E+01 [m/y]
 CFL Limiting ( 1.0):   1.2601E-02 ->   6.3600E-03 [y]

== REACTIVE TRANSPORT ==========================================================
  0 2r: 1.09E-19 2x: 0.00E+00 2u: 0.00E+00 ir: 3.04E-20 iu: 0.00E+00 rsn:   0
  1 2r: 2.06E-24 2x: 1.00E-08 2u: 3.57E-16 ir: 5.74E-25 iu: 1.70E-17 rsn:   0
  2 2r: 1.90E-27 2x: 1.00E-08 2u: 5.68E-21 ir: 4.31E-28 iu: 9.30E-22 rsn: stol

 Step     49 Time=  4.32692E-01 Dt=  6.36001E-03 [y] conv_reason: 4
  newton =   2 [      85] linear =    20 [       885] cuts =  0 [   0]
  --> SNES Linear/Non-Linear Iterations = 20 / 2
  --> SNES Residual: 0.190074E-26 0.190074E-26 0.430718E-27
  --> max change:  dcmx=   1.6971E-17  dc/dt=   8.4614E-23 [mol/s]
 Maximum Pore Velocity:   5.8346E+01 [m/y]
 CFL Limiting ( 1.0):   1.2720E-02 ->   6.4203E-03 [y]

== REACTIVE TRANSPORT ==========================================================
  0 2r: 1.01E-19 2x: 0.00E+00 2u: 0.00E+00 ir: 2.73E-20 iu: 0.00E+00 rsn:   0
  1 2r: 1.53E-24 2x: 1.00E-08 2u: 3.19E-16 ir: 4.23E-25 iu: 1.51E-17 rsn:   0
  2 2r: 1.74E-27 2x: 1.00E-08 2u: 3.89E-21 ir: 2.48E-28 iu: 6.43E-22 rsn: stol

 Step     50 Time=  4.38356E-01 Dt=  5.66406E-03 [y] conv_reason: 4
  newton =   2 [      87] linear =    19 [       904] cuts =  0 [   0]
  --> SNES Linear/Non-Linear Iterations = 19 / 2
  --> SNES Residual: 0.174286E-26 0.174286E-26 0.247702E-27
  --> max change:  dcmx=   1.5115E-17  dc/dt=   8.4620E-23 [mol/s]
 Maximum Pore Velocity:   5.7976E+01 [m/y]
 CFL Limiting ( 1.0):   1.1328E-02 ->   6.4741E-03 [y]

== RICHARDS FLOW ===============================================================
  0 2r: 3.72E-04 2x: 0.00E+00 2u: 0.00E+00 ir: 6.41E-05 iu: 0.00E+00 rsn:   0
  1 2r: 1.23E-05 2x: 8.53E+06 2u: 2.65E+05 ir: 8.16E-06 iu: 7.65E+03 rsn:   0
  2 2r: 1.82E-06 2x: 8.53E+06 2u: 8.76E+03 ir: 5.06E-07 iu: 5.54E+02 rsn:   0
  3 2r: 2.10E-09 2x: 8.53E+06 2u: 1.36E+02 ir: 8.84E-10 iu: 1.81E+01 rsn:   0
  4 2r: 6.34E-14 2x: 8.53E+06 2u: 2.58E+00 ir: 9.14E-15 iu: 4.86E-02 rsn: itol_upd

 Step     19 Time=  5.20548E-01 Dt=  8.21918E-02 [y] conv_reason: 11
  newton =   4 [      52] linear =   521 [      4346] cuts =  0 [   0]
  --> SNES Linear/Non-Linear Iterations = 521 / 4
  --> SNES Residual: 0.634049E-13 0.634049E-17 0.913741E-14
  --> max change: dpmx=   7.1828E+03

== REACTIVE TRANSPORT ==========================================================
  0 2r: 1.29E-19 2x: 0.00E+00 2u: 0.00E+00 ir: 3.38E-20 iu: 0.00E+00 rsn:   0
  1 2r: 1.57E-24 2x: 1.00E-08 2u: 4.35E-16 ir: 4.22E-25 iu: 1.81E-17 rsn:   0
  2 2r: 2.15E-27 2x: 1.00E-08 2u: 4.75E-21 ir: 3.49E-28 iu: 6.65E-22 rsn: stol

 Step     51 Time=  4.44830E-01 Dt=  6.47406E-03 [y] conv_reason: 4
  newton =   2 [      89] linear =    25 [       929] cuts =  0 [   0]
  --> SNES Linear/Non-Linear Iterations = 25 / 2
  --> SNES Residual: 0.214692E-26 0.214692E-26 0.348677E-27
  --> max change:  dcmx=   1.8113E-17  dc/dt=   8.8719E-23 [mol/s]
 Maximum Pore Velocity:   7.2114E+01 [m/y]
 CFL Limiting ( 1.0):   1.2948E-02 ->   5.1563E-03 [y]

== REACTIVE TRANSPORT ==========================================================
  0 2r: 1.11E-19 2x: 0.00E+00 2u: 0.00E+00 ir: 2.80E-20 iu: 0.00E+00 rsn:   0
  1 2r: 1.99E-24 2x: 1.00E-08 2u: 3.47E-16 ir: 4.96E-25 iu: 1.41E-17 rsn:   0
  2 2r: 2.12E-27 2x: 1.00E-08 2u: 5.08E-21 ir: 2.02E-28 iu: 6.85E-22 rsn: stol

 Step     52 Time=  4.49987E-01 Dt=  5.15635E-03 [y] conv_reason: 4
  newton =   2 [      91] linear =    21 [       950] cuts =  0 [   0]
  --> SNES Linear/Non-Linear Iterations = 21 / 2
  --> SNES Residual: 0.211572E-26 0.211572E-26 0.201948E-27
  --> max change:  dcmx=   1.4115E-17  dc/dt=   8.6804E-23 [mol/s]
 Maximum Pore Velocity:   7.1648E+01 [m/y]
 CFL Limiting ( 1.0):   1.0313E-02 ->   5.2013E-03 [y]

== REACTIVE TRANSPORT ==========================================================
  0 2r: 1.13E-19 2x: 0.00E+00 2u: 0.00E+00 ir: 2.82E-20 iu: 0.00E+00 rsn:   0
  1 2r: 1.05E-24 2x: 1.00E-08 2u: 3.50E-16 ir: 2.64E-25 iu: 1.40E-17 rsn:   0
  2 2r: 2.08E-27 2x: 1.00E-08 2u: 2.71E-21 ir: 2.04E-28 iu: 3.56E-22 rsn: stol

 Step     53 Time=  4.55188E-01 Dt=  5.20132E-03 [y] conv_reason: 4
  newton =   2 [      93] linear =    20 [       970] cuts =  0 [   0]
  --> SNES Linear/Non-Linear Iterations = 20 / 2
  --> SNES Residual: 0.207914E-26 0.207914E-26 0.203526E-27
  --> max change:  dcmx=   1.4046E-17  dc/dt=   8.5632E-23 [mol/s]
 Maximum Pore Velocity:   7.1184E+01 [m/y]
 CFL Limiting ( 1.0):   1.0403E-02 ->   5.2467E-03 [y]

== REACTIVE TRANSPORT ==========================================================
  0 2r: 1.13E-19 2x: 0.00E+00 2u: 0.00E+00 ir: 2.84E-20 iu: 0.00E+00 rsn:   0
  1 2r: 1.25E-24 2x: 1.00E-08 2u: 3.54E-16 ir: 3.06E-25 iu: 1.41E-17 rsn:   0
  2 2r: 2.20E-27 2x: 1.00E-08 2u: 3.16E-21 ir: 2.92E-28 iu: 4.13E-22 rsn: stol

 Step     54 Time=  4.60435E-01 Dt=  5.24668E-03 [y] conv_reason: 4
  newton =   2 [      95] linear =    20 [       990] cuts =  0 [   0]
  --> SNES Linear/Non-Linear Iterations = 20 / 2
  --> SNES Residual: 0.220151E-26 0.220151E-26 0.291879E-27
  --> max change:  dcmx=   1.4104E-17  dc/dt=   8.5243E-23 [mol/s]
 Maximum Pore Velocity:   7.0722E+01 [m/y]
 CFL Limiting ( 1.0):   1.0493E-02 ->   5.2924E-03 [y]

== REACTIVE TRANSPORT ==========================================================
  0 2r: 1.14E-19 2x: 0.00E+00 2u: 0.00E+00 ir: 2.87E-20 iu: 0.00E+00 rsn:   0
  1 2r: 1.53E-24 2x: 1.00E-08 2u: 3.57E-16 ir: 3.64E-25 iu: 1.42E-17 rsn:   0
  2 2r: 2.15E-27 2x: 1.00E-08 2u: 3.80E-21 ir: 2.22E-28 iu: 4.92E-22 rsn: stol

 Step     55 Time=  4.65727E-01 Dt=  5.29244E-03 [y] conv_reason: 4
  newton =   2 [      97] linear =    21 [      1011] cuts =  0 [   0]
  --> SNES Linear/Non-Linear Iterations = 21 / 2
  --> SNES Residual: 0.214889E-26 0.214889E-26 0.222459E-27
  --> max change:  dcmx=   1.4232E-17  dc/dt=   8.5272E-23 [mol/s]
 Maximum Pore Velocity:   7.0262E+01 [m/y]
 CFL Limiting ( 1.0):   1.0585E-02 ->   5.3386E-03 [y]

== REACTIVE TRANSPORT ==========================================================
  0 2r: 1.15E-19 2x: 0.00E+00 2u: 0.00E+00 ir: 2.89E-20 iu: 0.00E+00 rsn:   0
  1 2r: 1.65E-24 2x: 1.00E-08 2u: 3.60E-16 ir: 3.89E-25 iu: 1.44E-17 rsn:   0
  2 2r: 2.16E-27 2x: 1.00E-08 2u: 4.13E-21 ir: 2.40E-28 iu: 5.31E-22 rsn: stol

 Step     56 Time=  4.71066E-01 Dt=  5.33859E-03 [y] conv_reason: 4
  newton =   2 [      99] linear =    21 [      1032] cuts =  0 [   0]
  --> SNES Linear/Non-Linear Iterations = 21 / 2
  --> SNES Residual: 0.215947E-26 0.215947E-26 0.239814E-27
  --> max change:  dcmx=   1.4359E-17  dc/dt=   8.5291E-23 [mol/s]
 Maximum Pore Velocity:   6.9804E+01 [m/y]
 CFL Limiting ( 1.0):   1.0677E-02 ->   5.3852E-03 [y]

== REACTIVE TRANSPORT ==========================================================
  0 2r: 1.16E-19 2x: 0.00E+00 2u: 0.00E+00 ir: 2.91E-20 iu: 0.00E+00 rsn:   0
  1 2r: 1.68E-24 2x: 1.00E-08 2u: 3.64E-16 ir: 3.96E-25 iu: 1.45E-17 rsn:   0
  2 2r: 2.22E-27 2x: 1.00E-08 2u: 4.26E-21 ir: 2.52E-28 iu: 5.45E-22 rsn: stol

 Step     57 Time=  4.76451E-01 Dt=  5.38515E-03 [y] conv_reason: 4
  newton =   2 [     101] linear =    21 [      1053] cuts =  0 [   0]
  --> SNES Linear/Non-Linear Iterations = 21 / 2
  --> SNES Residual: 0.222362E-26 0.222362E-26 0.252435E-27
  --> max change:  dcmx=   1.4487E-17  dc/dt=   8.5303E-23 [mol/s]
 Maximum Pore Velocity:   6.9348E+01 [m/y]
 CFL Limiting ( 1.0):   1.0770E-02 ->   5.4321E-03 [y]

== REACTIVE TRANSPORT ==========================================================
  0 2r: 1.16E-19 2x: 0.00E+00 2u: 0.00E+00 ir: 2.94E-20 iu: 0.00E+00 rsn:   0
  1 2r: 1.78E-24 2x: 1.00E-08 2u: 3.67E-16 ir: 4.20E-25 iu: 1.46E-17 rsn:   0
  2 2r: 2.29E-27 2x: 1.00E-08 2u: 4.56E-21 ir: 5.13E-28 iu: 5.81E-22 rsn: stol

 Step     58 Time=  4.81883E-01 Dt=  5.43212E-03 [y] conv_reason: 4
  newton =   2 [     103] linear =    21 [      1074] cuts =  0 [   0]
  --> SNES Linear/Non-Linear Iterations = 21 / 2
  --> SNES Residual: 0.228855E-26 0.228855E-26 0.512760E-27
  --> max change:  dcmx=   1.4614E-17  dc/dt=   8.5310E-23 [mol/s]
 Maximum Pore Velocity:   6.8894E+01 [m/y]
 CFL Limiting ( 1.0):   1.0864E-02 ->   5.4795E-03 [y]

== REACTIVE TRANSPORT ==========================================================
  0 2r: 1.17E-19 2x: 0.00E+00 2u: 0.00E+00 ir: 2.96E-20 iu: 0.00E+00 rsn:   0
  1 2r: 1.94E-24 2x: 1.00E-08 2u: 3.71E-16 ir: 4.59E-25 iu: 1.47E-17 rsn:   0
  2 2r: 2.18E-27 2x: 1.00E-08 2u: 5.04E-21 ir: 2.59E-28 iu: 6.38E-22 rsn: stol

 Step     59 Time=  4.87362E-01 Dt=  5.47949E-03 [y] conv_reason: 4
  newton =   2 [     105] linear =    21 [      1095] cuts =  0 [   0]
  --> SNES Linear/Non-Linear Iterations = 21 / 2
  --> SNES Residual: 0.217999E-26 0.217999E-26 0.258746E-27
  --> max change:  dcmx=   1.4743E-17  dc/dt=   8.5315E-23 [mol/s]
 Maximum Pore Velocity:   6.8442E+01 [m/y]
 CFL Limiting ( 1.0):   1.0959E-02 ->   5.5273E-03 [y]

== REACTIVE TRANSPORT ==========================================================
  0 2r: 1.18E-19 2x: 0.00E+00 2u: 0.00E+00 ir: 2.99E-20 iu: 0.00E+00 rsn:   0
  1 2r: 2.04E-24 2x: 1.00E-08 2u: 3.75E-16 ir: 4.83E-25 iu: 1.49E-17 rsn:   0
  2 2r: 2.24E-27 2x: 1.00E-08 2u: 5.36E-21 ir: 5.21E-28 iu: 6.75E-22 rsn: stol

 Step     60 Time=  4.92890E-01 Dt=  5.52728E-03 [y] conv_reason: 4
  newton =   2 [     107] linear =    20 [      1115] cuts =  0 [   0]
  --> SNES Linear/Non-Linear Iterations = 20 / 2
  --> SNES Residual: 0.224111E-26 0.224111E-26 0.520648E-27
  --> max change:  dcmx=   1.4872E-17  dc/dt=   8.5318E-23 [mol/s]
 Maximum Pore Velocity:   6.7992E+01 [m/y]
 CFL Limiting ( 1.0):   1.1055E-02 ->   5.5755E-03 [y]

== REACTIVE TRANSPORT ==========================================================
  0 2r: 1.19E-19 2x: 0.00E+00 2u: 0.00E+00 ir: 3.01E-20 iu: 0.00E+00 rsn:   0
  1 2r: 1.99E-24 2x: 1.00E-08 2u: 3.78E-16 ir: 4.76E-25 iu: 1.50E-17 rsn:   0
  2 2r: 2.23E-27 2x: 1.00E-08 2u: 5.34E-21 ir: 3.57E-28 iu: 6.70E-22 rsn: stol

 Step     61 Time=  4.98465E-01 Dt=  5.57548E-03 [y] conv_reason: 4
  newton =   2 [     109] linear =    21 [      1136] cuts =  0 [   0]
  --> SNES Linear/Non-Linear Iterations = 21 / 2
  --> SNES Residual: 0.223266E-26 0.223266E-26 0.356565E-27
  --> max change:  dcmx=   1.5002E-17  dc/dt=   8.5320E-23 [mol/s]
 Maximum Pore Velocity:   6.7544E+01 [m/y]
 CFL Limiting ( 1.0):   1.1151E-02 ->   5.6241E-03 [y]

== REACTIVE TRANSPORT ==========================================================
  0 2r: 1.19E-19 2x: 0.00E+00 2u: 0.00E+00 ir: 3.03E-20 iu: 0.00E+00 rsn:   0
  1 2r: 1.85E-24 2x: 1.00E-08 2u: 3.82E-16 ir: 4.45E-25 iu: 1.51E-17 rsn:   0
  2 2r: 2.25E-27 2x: 1.00E-08 2u: 5.05E-21 ir: 3.09E-28 iu: 6.33E-22 rsn: stol

 Step     62 Time=  5.04089E-01 Dt=  5.62411E-03 [y] conv_reason: 4
  newton =   2 [     111] linear =    21 [      1157] cuts =  0 [   0]
  --> SNES Linear/Non-Linear Iterations = 21 / 2
  --> SNES Residual: 0.224907E-26 0.224907E-26 0.309233E-27
  --> max change:  dcmx=   1.5133E-17  dc/dt=   8.5321E-23 [mol/s]
 Maximum Pore Velocity:   6.7098E+01 [m/y]
 CFL Limiting ( 1.0):   1.1248E-02 ->   5.6732E-03 [y]

== REACTIVE TRANSPORT ==========================================================
  0 2r: 1.20E-19 2x: 0.00E+00 2u: 0.00E+00 ir: 3.06E-20 iu: 0.00E+00 rsn:   0
  1 2r: 1.70E-24 2x: 1.00E-08 2u: 3.86E-16 ir: 4.04E-25 iu: 1.53E-17 rsn:   0
  2 2r: 2.19E-27 2x: 1.00E-08 2u: 4.63E-21 ir: 2.68E-28 iu: 5.80E-22 rsn: stol

 Step     63 Time=  5.09762E-01 Dt=  5.67316E-03 [y] conv_reason: 4
  newton =   2 [     113] linear =    21 [      1178] cuts =  0 [   0]
  --> SNES Linear/Non-Linear Iterations = 21 / 2
  --> SNES Residual: 0.218677E-26 0.218677E-26 0.268213E-27
  --> max change:  dcmx=   1.5265E-17  dc/dt=   8.5322E-23 [mol/s]
 Maximum Pore Velocity:   6.6654E+01 [m/y]
 CFL Limiting ( 1.0):   1.1346E-02 ->   5.7226E-03 [y]

== REACTIVE TRANSPORT ==========================================================
  0 2r: 1.21E-19 2x: 0.00E+00 2u: 0.00E+00 ir: 3.08E-20 iu: 0.00E+00 rsn:   0
  1 2r: 1.39E-24 2x: 1.00E-08 2u: 3.89E-16 ir: 3.23E-25 iu: 1.54E-17 rsn:   0
  2 2r: 2.16E-27 2x: 1.00E-08 2u: 3.75E-21 ir: 3.17E-28 iu: 4.70E-22 rsn: stol

 Step     64 Time=  5.15485E-01 Dt=  5.72263E-03 [y] conv_reason: 4
  newton =   2 [     115] linear =    22 [      1200] cuts =  0 [   0]
  --> SNES Linear/Non-Linear Iterations = 22 / 2
  --> SNES Residual: 0.216085E-26 0.216085E-26 0.317122E-27
  --> max change:  dcmx=   1.5398E-17  dc/dt=   8.5323E-23 [mol/s]
 Maximum Pore Velocity:   6.6212E+01 [m/y]
 CFL Limiting ( 1.0):   1.1445E-02 ->   5.7725E-03 [y]

== REACTIVE TRANSPORT ==========================================================
  0 2r: 1.11E-19 2x: 0.00E+00 2u: 0.00E+00 ir: 2.75E-20 iu: 0.00E+00 rsn:   0
  1 2r: 2.23E-24 2x: 1.00E-08 2u: 3.45E-16 ir: 5.52E-25 iu: 1.36E-17 rsn:   0
  2 2r: 2.14E-27 2x: 1.00E-08 2u: 5.82E-21 ir: 2.27E-28 iu: 7.56E-22 rsn: stol

 Step     65 Time=  5.20548E-01 Dt=  5.06292E-03 [y] conv_reason: 4
  newton =   2 [     117] linear =    19 [      1219] cuts =  0 [   0]
  --> SNES Linear/Non-Linear Iterations = 19 / 2
  --> SNES Residual: 0.214341E-26 0.214341E-26 0.227192E-27
  --> max change:  dcmx=   1.3623E-17  dc/dt=   8.5323E-23 [mol/s]
 Maximum Pore Velocity:   6.5826E+01 [m/y]
 CFL Limiting ( 1.0):   1.0126E-02 ->   5.8167E-03 [y]

== RICHARDS FLOW ===============================================================
  0 2r: 1.25E-04 2x: 0.00E+00 2u: 0.00E+00 ir: 2.34E-05 iu: 0.00E+00 rsn:   0
  1 2r: 4.19E-06 2x: 8.61E+06 2u: 9.15E+04 ir: 2.94E-06 iu: 2.41E+03 rsn:   0
  2 2r: 1.05E-09 2x: 8.61E+06 2u: 1.21E+03 ir: 3.02E-10 iu: 8.26E+01 rsn:   0
  3 2r: 2.08E-12 2x: 8.61E+06 2u: 3.83E+00 ir: 4.99E-13 iu: 2.93E-01 rsn: itol_upd

 Step     20 Time=  5.47945E-01 Dt=  2.73973E-02 [y] conv_reason: 11
  newton =   3 [      55] linear =   312 [      4658] cuts =  0 [   0]
  --> SNES Linear/Non-Linear Iterations = 312 / 3
  --> SNES Residual: 0.208420E-11 0.208420E-15 0.498622E-12
  --> max change: dpmx=   2.3323E+03

== REACTIVE TRANSPORT ==========================================================
  0 2r: 2.32E-19 2x: 0.00E+00 2u: 0.00E+00 ir: 9.33E-20 iu: 0.00E+00 rsn:   0
  1 2r: 1.23E-24 2x: 1.00E-08 2u: 4.22E-16 ir: 5.37E-25 iu: 1.58E-17 rsn:   0
  2 2r: 2.34E-27 2x: 1.00E-08 2u: 2.79E-21 ir: 2.56E-28 iu: 3.62E-22 rsn: stol

 Step     66 Time=  5.26365E-01 Dt=  5.81670E-03 [y] conv_reason: 4
  newton =   2 [     119] linear =    21 [      1240] cuts =  0 [   0]
  --> SNES Linear/Non-Linear Iterations = 21 / 2
  --> SNES Residual: 0.233834E-26 0.233834E-26 0.255591E-27
  --> max change:  dcmx=   1.5753E-17  dc/dt=   8.5875E-23 [mol/s]
 Maximum Pore Velocity:   7.0643E+01 [m/y]
 CFL Limiting ( 1.0):   1.1633E-02 ->   5.0038E-03 [y]

== REACTIVE TRANSPORT ==========================================================
  0 2r: 2.08E-19 2x: 0.00E+00 2u: 0.00E+00 ir: 7.87E-20 iu: 0.00E+00 rsn:   0
  1 2r: 2.77E-24 2x: 1.00E-08 2u: 3.65E-16 ir: 7.06E-25 iu: 1.35E-17 rsn:   0
  2 2r: 2.40E-27 2x: 1.00E-08 2u: 7.17E-21 ir: 4.39E-28 iu: 9.62E-22 rsn: stol

 Step     67 Time=  5.31368E-01 Dt=  5.00381E-03 [y] conv_reason: 4
  newton =   2 [     121] linear =    20 [      1260] cuts =  0 [   0]
  --> SNES Linear/Non-Linear Iterations = 20 / 2
  --> SNES Residual: 0.239664E-26 0.239664E-26 0.438607E-27
  --> max change:  dcmx=   1.3460E-17  dc/dt=   8.5301E-23 [mol/s]
 Maximum Pore Velocity:   7.0578E+01 [m/y]
 CFL Limiting ( 1.0):   1.0008E-02 ->   5.0201E-03 [y]

== REACTIVE TRANSPORT ==========================================================
  0 2r: 2.09E-19 2x: 0.00E+00 2u: 0.00E+00 ir: 7.89E-20 iu: 0.00E+00 rsn:   0
  1 2r: 3.20E-24 2x: 1.00E-08 2u: 3.67E-16 ir: 8.08E-25 iu: 1.35E-17 rsn:   0
  2 2r: 2.42E-27 2x: 1.00E-08 2u: 8.32E-21 ir: 2.37E-28 iu: 1.10E-21 rsn: stol

 Step     68 Time=  5.36389E-01 Dt=  5.02006E-03 [y] conv_reason: 4
  newton =   2 [     123] linear =    20 [      1280] cuts =  0 [   0]
  --> SNES Linear/Non-Linear Iterations = 20 / 2
  --> SNES Residual: 0.241821E-26 0.241821E-26 0.236658E-27
  --> max change:  dcmx=   1.3478E-17  dc/dt=   8.5135E-23 [mol/s]
 Maximum Pore Velocity:   7.0513E+01 [m/y]
 CFL Limiting ( 1.0):   1.0040E-02 ->   5.0364E-03 [y]

== REACTIVE TRANSPORT ==========================================================
  0 2r: 2.09E-19 2x: 0.00E+00 2u: 0.00E+00 ir: 7.91E-20 iu: 0.00E+00 rsn:   0
  1 2r: 1.33E-24 2x: 1.00E-08 2u: 3.68E-16 ir: 3.23E-25 iu: 1.35E-17 rsn:   0
  2 2r: 2.42E-27 2x: 1.00E-08 2u: 3.39E-21 ir: 3.41E-28 iu: 4.19E-22 rsn: stol

 Step     69 Time=  5.41425E-01 Dt=  5.03635E-03 [y] conv_reason: 4
  newton =   2 [     125] linear =    21 [      1301] cuts =  0 [   0]
  --> SNES Linear/Non-Linear Iterations = 21 / 2
  --> SNES Residual: 0.241888E-26 0.241888E-26 0.340788E-27
  --> max change:  dcmx=   1.3508E-17  dc/dt=   8.5051E-23 [mol/s]
 Maximum Pore Velocity:   7.0448E+01 [m/y]
 CFL Limiting ( 1.0):   1.0073E-02 ->   5.0527E-03 [y]

== REACTIVE TRANSPORT ==========================================================
  0 2r: 2.10E-19 2x: 0.00E+00 2u: 0.00E+00 ir: 7.93E-20 iu: 0.00E+00 rsn:   0
  1 2r: 7.08E-25 2x: 1.00E-08 2u: 3.70E-16 ir: 3.65E-25 iu: 1.35E-17 rsn:   0
  2 2r: 2.28E-27 2x: 1.00E-08 2u: 1.11E-21 ir: 2.62E-28 iu: 1.46E-22 rsn: stol

 Step     70 Time=  5.46478E-01 Dt=  5.05270E-03 [y] conv_reason: 4
  newton =   2 [     127] linear =    21 [      1322] cuts =  0 [   0]
  --> SNES Linear/Non-Linear Iterations = 21 / 2
  --> SNES Residual: 0.228353E-26 0.228353E-26 0.261902E-27
  --> max change:  dcmx=   1.3544E-17  dc/dt=   8.4999E-23 [mol/s]
 Maximum Pore Velocity:   7.0383E+01 [m/y]
 CFL Limiting ( 1.0):   1.0105E-02 ->   5.0691E-03 [y]

== REACTIVE TRANSPORT ==========================================================
  0 2r: 8.68E-20 2x: 0.00E+00 2u: 0.00E+00 ir: 2.45E-20 iu: 0.00E+00 rsn:   0
  1 2r: 1.84E-24 2x: 1.00E-08 2u: 1.07E-16 ir: 5.55E-25 iu: 3.93E-18 rsn:   0
  2 2r: 2.25E-27 2x: 1.00E-08 2u: 1.63E-21 ir: 2.40E-28 iu: 3.26E-22 rsn: stol

 Step     71 Time=  5.47945E-01 Dt=  1.46764E-03 [y] conv_reason: 4
  newton =   2 [     129] linear =    13 [      1335] cuts =  0 [   0]
  --> SNES Linear/Non-Linear Iterations = 13 / 2
  --> SNES Residual: 0.224688E-26 0.224688E-26 0.239814E-27
  --> max change:  dcmx=   3.9334E-18  dc/dt=   8.4985E-23 [mol/s]
 Maximum Pore Velocity:   7.0364E+01 [m/y]

 --> appending to hdf5 output file: 4-hw7-2D_solute.h5
      0.07 Seconds to write HDF5 file.

== RICHARDS FLOW ===============================================================
  0 2r: 1.24E-04 2x: 0.00E+00 2u: 0.00E+00 ir: 2.03E-05 iu: 0.00E+00 rsn:   0
  1 2r: 8.91E-06 2x: 8.70E+06 2u: 1.51E+05 ir: 8.47E-06 iu: 5.17E+03 rsn:   0
  2 2r: 4.21E-07 2x: 8.70E+06 2u: 9.60E+03 ir: 2.93E-07 iu: 4.89E+02 rsn:   0
  3 2r: 1.59E-10 2x: 8.70E+06 2u: 1.21E+02 ir: 1.08E-10 iu: 8.15E+00 rsn:   0
  4 2r: 1.68E-14 2x: 8.70E+06 2u: 2.95E-01 ir: 2.05E-15 iu: 6.95E-03 rsn: itol_upd

 Step     21 Time=  6.30137E-01 Dt=  8.21918E-02 [y] conv_reason: 11
  newton =   4 [      59] linear =   476 [      5134] cuts =  0 [   0]
  --> SNES Linear/Non-Linear Iterations = 476 / 4
  --> SNES Residual: 0.167899E-13 0.167899E-17 0.204528E-14
  --> max change: dpmx=   4.7192E+03

== REACTIVE TRANSPORT ==========================================================
  0 2r: 3.98E-20 2x: 0.00E+00 2u: 0.00E+00 ir: 1.05E-20 iu: 0.00E+00 rsn:   0
  1 2r: 5.52E-25 2x: 1.00E-08 2u: 1.68E-16 ir: 1.02E-25 iu: 5.80E-18 rsn:   0
  2 2r: 1.34E-27 2x: 1.00E-08 2u: 1.70E-21 ir: 1.07E-28 iu: 1.91E-22 rsn: stol

 Step     72 Time=  5.53014E-01 Dt=  5.06911E-03 [y] conv_reason: 4
  newton =   2 [     131] linear =    16 [      1351] cuts =  0 [   0]
  --> SNES Linear/Non-Linear Iterations = 16 / 2
  --> SNES Residual: 0.133952E-26 0.133952E-26 0.107285E-27
  --> max change:  dcmx=   5.8048E-18  dc/dt=   3.6312E-23 [mol/s]
 Maximum Pore Velocity:   2.7518E+01 [m/y]

== REACTIVE TRANSPORT ==========================================================
  0 2r: 6.61E-20 2x: 0.00E+00 2u: 0.00E+00 ir: 2.01E-20 iu: 0.00E+00 rsn:   0
  1 2r: 6.91E-25 2x: 1.00E-08 2u: 3.20E-16 ir: 1.31E-25 iu: 1.12E-17 rsn:   0
  2 2r: 1.36E-27 2x: 1.00E-08 2u: 3.77E-21 ir: 1.17E-28 iu: 3.79E-22 rsn: stol

 Step     73 Time=  5.63153E-01 Dt=  1.01382E-02 [y] conv_reason: 4
  newton =   2 [     133] linear =    22 [      1373] cuts =  0 [   0]
  --> SNES Linear/Non-Linear Iterations = 22 / 2
  --> SNES Residual: 0.136495E-26 0.136495E-26 0.116751E-27
  --> max change:  dcmx=   1.1224E-17  dc/dt=   3.5105E-23 [mol/s]
 Maximum Pore Velocity:   2.7518E+01 [m/y]
 CFL Limiting ( 1.0):   2.0276E-02 ->   1.7397E-02 [y]

== REACTIVE TRANSPORT ==========================================================
  0 2r: 1.06E-19 2x: 0.00E+00 2u: 0.00E+00 ir: 3.41E-20 iu: 0.00E+00 rsn:   0
  1 2r: 1.35E-24 2x: 1.00E-08 2u: 5.29E-16 ir: 2.26E-25 iu: 1.85E-17 rsn:   0
  2 2r: 1.35E-27 2x: 1.00E-08 2u: 1.27E-20 ir: 1.15E-28 iu: 1.08E-21 rsn: stol

 Step     74 Time=  5.80549E-01 Dt=  1.73967E-02 [y] conv_reason: 4
  newton =   2 [     135] linear =    25 [      1398] cuts =  0 [   0]
  --> SNES Linear/Non-Linear Iterations = 25 / 2
  --> SNES Residual: 0.135309E-26 0.135309E-26 0.115174E-27
  --> max change:  dcmx=   1.8501E-17  dc/dt=   3.3723E-23 [mol/s]
 Maximum Pore Velocity:   2.7518E+01 [m/y]
 CFL Limiting ( 1.0):   3.4793E-02 ->   1.7383E-02 [y]

== REACTIVE TRANSPORT ==========================================================
  0 2r: 1.06E-19 2x: 0.00E+00 2u: 0.00E+00 ir: 3.41E-20 iu: 0.00E+00 rsn:   0
  1 2r: 1.04E-24 2x: 1.00E-08 2u: 5.17E-16 ir: 1.80E-25 iu: 1.78E-17 rsn:   0
  2 2r: 1.34E-27 2x: 1.00E-08 2u: 9.40E-21 ir: 1.06E-28 iu: 7.43E-22 rsn: stol

 Step     75 Time=  5.97932E-01 Dt=  1.73829E-02 [y] conv_reason: 4
  newton =   2 [     137] linear =    27 [      1425] cuts =  0 [   0]
  --> SNES Linear/Non-Linear Iterations = 27 / 2
  --> SNES Residual: 0.134239E-26 0.134239E-26 0.106496E-27
  --> max change:  dcmx=   1.7833E-17  dc/dt=   3.2530E-23 [mol/s]
 Maximum Pore Velocity:   2.7518E+01 [m/y]
 CFL Limiting ( 1.0):   3.4766E-02 ->   1.7369E-02 [y]

== REACTIVE TRANSPORT ==========================================================
  0 2r: 1.06E-19 2x: 0.00E+00 2u: 0.00E+00 ir: 3.41E-20 iu: 0.00E+00 rsn:   0
  1 2r: 9.67E-25 2x: 1.00E-08 2u: 5.10E-16 ir: 2.37E-25 iu: 1.72E-17 rsn:   0
  2 2r: 1.42E-27 2x: 1.00E-08 2u: 8.77E-21 ir: 1.29E-28 iu: 9.32E-22 rsn: stol

 Step     76 Time=  6.15301E-01 Dt=  1.73691E-02 [y] conv_reason: 4
  newton =   2 [     139] linear =    26 [      1451] cuts =  0 [   0]
  --> SNES Linear/Non-Linear Iterations = 26 / 2
  --> SNES Residual: 0.141886E-26 0.141886E-26 0.129373E-27
  --> max change:  dcmx=   1.7237E-17  dc/dt=   3.1469E-23 [mol/s]
 Maximum Pore Velocity:   2.7518E+01 [m/y]
 CFL Limiting ( 1.0):   3.4738E-02 ->   1.7355E-02 [y]

== REACTIVE TRANSPORT ==========================================================
  0 2r: 9.15E-20 2x: 0.00E+00 2u: 0.00E+00 ir: 2.92E-20 iu: 0.00E+00 rsn:   0
  1 2r: 5.43E-25 2x: 1.00E-08 2u: 4.31E-16 ir: 1.26E-25 iu: 1.43E-17 rsn:   0
  2 2r: 1.32E-27 2x: 1.00E-08 2u: 2.80E-21 ir: 1.11E-28 iu: 3.32E-22 rsn: stol

 Step     77 Time=  6.30137E-01 Dt=  1.48358E-02 [y] conv_reason: 4
  newton =   2 [     141] linear =    27 [      1478] cuts =  0 [   0]
  --> SNES Linear/Non-Linear Iterations = 27 / 2
  --> SNES Residual: 0.132151E-26 0.132151E-26 0.111229E-27
  --> max change:  dcmx=   1.4343E-17  dc/dt=   3.0657E-23 [mol/s]
 Maximum Pore Velocity:   2.7518E+01 [m/y]
 CFL Limiting ( 1.0):   2.9672E-02 ->   1.7343E-02 [y]

== RICHARDS FLOW ===============================================================
  0 2r: 3.51E-04 2x: 0.00E+00 2u: 0.00E+00 ir: 6.08E-05 iu: 0.00E+00 rsn:   0
[...]
  --> SNES Residual: 0.218475E-15 0.218475E-15 0.893925E-16
  --> max change:  dcmx=   1.5687E-03  dc/dt=   1.6946E-08 [mol/s]
 Maximum Pore Velocity:   8.4986E+01 [m/y]
 CFL Limiting ( 1.0):   5.8707E-03 ->   2.9353E-03 [y]

== REACTIVE TRANSPORT ==========================================================
  0 2r: 1.04E-05 2x: 0.00E+00 2u: 0.00E+00 ir: 4.22E-07 iu: 0.00E+00 rsn:   0
  1 2r: 1.73E-10 2x: 3.79E+01 2u: 4.18E-02 ir: 1.50E-10 iu: 1.55E-03 rsn:   0
  2 2r: 5.70E-16 2x: 3.79E+01 2u: 2.39E-07 ir: 1.76E-16 iu: 1.04E-07 rsn: rtol

 Step   2478 Time=  1.48599E+01 Dt=  2.93532E-03 [y] conv_reason: 3
  newton =   2 [    4886] linear =    14 [     44645] cuts =  0 [   0]
  --> SNES Linear/Non-Linear Iterations = 14 / 2
  --> SNES Residual: 0.570081E-15 0.570081E-15 0.176183E-15
  --> max change:  dcmx=   1.5519E-03  dc/dt=   1.6765E-08 [mol/s]
 Maximum Pore Velocity:   8.4986E+01 [m/y]
 CFL Limiting ( 1.0):   5.8706E-03 ->   2.9353E-03 [y]

== REACTIVE TRANSPORT ==========================================================
  0 2r: 1.03E-05 2x: 0.00E+00 2u: 0.00E+00 ir: 4.18E-07 iu: 0.00E+00 rsn:   0
  1 2r: 1.93E-10 2x: 3.79E+01 2u: 4.17E-02 ir: 1.66E-10 iu: 1.54E-03 rsn:   0
  2 2r: 9.99E-16 2x: 3.79E+01 2u: 2.82E-07 ir: 3.13E-16 iu: 1.20E-07 rsn: rtol

 Step   2479 Time=  1.48628E+01 Dt=  2.93527E-03 [y] conv_reason: 3
  newton =   2 [    4888] linear =    14 [     44659] cuts =  0 [   0]
  --> SNES Linear/Non-Linear Iterations = 14 / 2
  --> SNES Residual: 0.998596E-15 0.998596E-15 0.313084E-15
  --> max change:  dcmx=   1.5356E-03  dc/dt=   1.6589E-08 [mol/s]
 Maximum Pore Velocity:   8.4986E+01 [m/y]
 CFL Limiting ( 1.0):   5.8705E-03 ->   2.9352E-03 [y]

== REACTIVE TRANSPORT ==========================================================
  0 2r: 1.02E-05 2x: 0.00E+00 2u: 0.00E+00 ir: 4.14E-07 iu: 0.00E+00 rsn:   0
  1 2r: 2.11E-10 2x: 3.79E+01 2u: 4.15E-02 ir: 1.79E-10 iu: 1.52E-03 rsn:   0
  2 2r: 4.80E-16 2x: 3.79E+01 2u: 3.36E-07 ir: 1.63E-16 iu: 1.38E-07 rsn: rtol

 Step   2480 Time=  1.48658E+01 Dt=  2.93522E-03 [y] conv_reason: 3
  newton =   2 [    4890] linear =    14 [     44673] cuts =  0 [   0]
  --> SNES Linear/Non-Linear Iterations = 14 / 2
  --> SNES Residual: 0.479777E-15 0.479777E-15 0.162549E-15
  --> max change:  dcmx=   1.5198E-03  dc/dt=   1.6418E-08 [mol/s]
 Maximum Pore Velocity:   8.4986E+01 [m/y]
 CFL Limiting ( 1.0):   5.8704E-03 ->   2.9352E-03 [y]

== REACTIVE TRANSPORT ==========================================================
  0 2r: 1.02E-05 2x: 0.00E+00 2u: 0.00E+00 ir: 4.09E-07 iu: 0.00E+00 rsn:   0
  1 2r: 2.16E-10 2x: 3.79E+01 2u: 4.14E-02 ir: 1.71E-10 iu: 1.50E-03 rsn:   0
  2 2r: 3.71E-16 2x: 3.79E+01 2u: 3.88E-07 ir: 1.08E-16 iu: 1.51E-07 rsn: rtol

 Step   2481 Time=  1.48687E+01 Dt=  2.93517E-03 [y] conv_reason: 3
  newton =   2 [    4892] linear =    14 [     44687] cuts =  0 [   0]
  --> SNES Linear/Non-Linear Iterations = 14 / 2
  --> SNES Residual: 0.371442E-15 0.371442E-15 0.107932E-15
  --> max change:  dcmx=   1.5045E-03  dc/dt=   1.6254E-08 [mol/s]
 Maximum Pore Velocity:   8.4986E+01 [m/y]
 CFL Limiting ( 1.0):   5.8703E-03 ->   2.9351E-03 [y]

== REACTIVE TRANSPORT ==========================================================
  0 2r: 1.01E-05 2x: 0.00E+00 2u: 0.00E+00 ir: 4.05E-07 iu: 0.00E+00 rsn:   0
  1 2r: 7.79E-11 2x: 3.78E+01 2u: 4.12E-02 ir: 4.22E-11 iu: 1.49E-03 rsn:   0
  2 2r: 2.30E-16 2x: 3.78E+01 2u: 1.88E-07 ir: 7.71E-17 iu: 4.65E-08 rsn: rtol

 Step   2482 Time=  1.48716E+01 Dt=  2.93511E-03 [y] conv_reason: 3
  newton =   2 [    4894] linear =    15 [     44702] cuts =  0 [   0]
  --> SNES Linear/Non-Linear Iterations = 15 / 2
  --> SNES Residual: 0.230423E-15 0.230423E-15 0.770868E-16
  --> max change:  dcmx=   1.4897E-03  dc/dt=   1.6094E-08 [mol/s]
 Maximum Pore Velocity:   8.4986E+01 [m/y]
 CFL Limiting ( 1.0):   5.8702E-03 ->   2.9351E-03 [y]

== REACTIVE TRANSPORT ==========================================================
  0 2r: 1.00E-05 2x: 0.00E+00 2u: 0.00E+00 ir: 4.01E-07 iu: 0.00E+00 rsn:   0
  1 2r: 4.53E-11 2x: 3.78E+01 2u: 4.11E-02 ir: 3.99E-11 iu: 1.48E-03 rsn:   0
  2 2r: 1.38E-16 2x: 3.78E+01 2u: 6.44E-08 ir: 3.95E-17 iu: 3.05E-08 rsn: rtol

 Step   2483 Time=  1.48746E+01 Dt=  2.93506E-03 [y] conv_reason: 3
  newton =   2 [    4896] linear =    15 [     44717] cuts =  0 [   0]
  --> SNES Linear/Non-Linear Iterations = 15 / 2
  --> SNES Residual: 0.137565E-15 0.137565E-15 0.394853E-16
  --> max change:  dcmx=   1.4755E-03  dc/dt=   1.5941E-08 [mol/s]
 Maximum Pore Velocity:   8.4986E+01 [m/y]
 CFL Limiting ( 1.0):   5.8701E-03 ->   2.9350E-03 [y]

== REACTIVE TRANSPORT ==========================================================
  0 2r: 9.97E-06 2x: 0.00E+00 2u: 0.00E+00 ir: 3.97E-07 iu: 0.00E+00 rsn:   0
  1 2r: 1.96E-10 2x: 3.78E+01 2u: 4.10E-02 ir: 1.70E-10 iu: 1.46E-03 rsn:   0
  2 2r: 7.35E-16 2x: 3.78E+01 2u: 2.07E-07 ir: 1.53E-16 iu: 1.07E-07 rsn: rtol

 Step   2484 Time=  1.48775E+01 Dt=  2.93501E-03 [y] conv_reason: 3
  newton =   2 [    4898] linear =    15 [     44732] cuts =  0 [   0]
  --> SNES Linear/Non-Linear Iterations = 15 / 2
  --> SNES Residual: 0.734876E-15 0.734876E-15 0.153286E-15
  --> max change:  dcmx=   1.4617E-03  dc/dt=   1.5793E-08 [mol/s]
 Maximum Pore Velocity:   8.4986E+01 [m/y]
 CFL Limiting ( 1.0):   5.8700E-03 ->   2.9350E-03 [y]

== REACTIVE TRANSPORT ==========================================================
  0 2r: 9.91E-06 2x: 0.00E+00 2u: 0.00E+00 ir: 3.94E-07 iu: 0.00E+00 rsn:   0
  1 2r: 9.68E-11 2x: 3.77E+01 2u: 4.08E-02 ir: 8.35E-11 iu: 1.45E-03 rsn:   0
  2 2r: 5.41E-16 2x: 3.77E+01 2u: 1.30E-07 ir: 1.15E-16 iu: 5.70E-08 rsn: rtol

 Step   2485 Time=  1.48804E+01 Dt=  2.93496E-03 [y] conv_reason: 3
  newton =   2 [    4900] linear =    15 [     44747] cuts =  0 [   0]
  --> SNES Linear/Non-Linear Iterations = 15 / 2
  --> SNES Residual: 0.540590E-15 0.540590E-15 0.115156E-15
  --> max change:  dcmx=   1.4485E-03  dc/dt=   1.5649E-08 [mol/s]
 Maximum Pore Velocity:   8.4986E+01 [m/y]
 CFL Limiting ( 1.0):   5.8699E-03 ->   2.9349E-03 [y]

== REACTIVE TRANSPORT ==========================================================
  0 2r: 9.85E-06 2x: 0.00E+00 2u: 0.00E+00 ir: 3.90E-07 iu: 0.00E+00 rsn:   0
  1 2r: 6.33E-11 2x: 3.77E+01 2u: 4.07E-02 ir: 4.98E-11 iu: 1.44E-03 rsn:   0
  2 2r: 3.67E-17 2x: 3.77E+01 2u: 1.21E-07 ir: 9.01E-18 iu: 4.37E-08 rsn: rtol

 Step   2486 Time=  1.48834E+01 Dt=  2.93491E-03 [y] conv_reason: 3
  newton =   2 [    4902] linear =    16 [     44763] cuts =  0 [   0]
  --> SNES Linear/Non-Linear Iterations = 16 / 2
  --> SNES Residual: 0.367328E-16 0.367328E-16 0.901243E-17
  --> max change:  dcmx=   1.4357E-03  dc/dt=   1.5511E-08 [mol/s]
 Maximum Pore Velocity:   8.4986E+01 [m/y]
 CFL Limiting ( 1.0):   5.8698E-03 ->   2.9349E-03 [y]

== REACTIVE TRANSPORT ==========================================================
  0 2r: 9.79E-06 2x: 0.00E+00 2u: 0.00E+00 ir: 3.87E-07 iu: 0.00E+00 rsn:   0
  1 2r: 5.54E-11 2x: 3.77E+01 2u: 4.06E-02 ir: 3.71E-11 iu: 1.42E-03 rsn:   0
  2 2r: 1.55E-16 2x: 3.77E+01 2u: 1.20E-07 ir: 4.95E-17 iu: 4.01E-08 rsn: rtol

 Step   2487 Time=  1.48863E+01 Dt=  2.93485E-03 [y] conv_reason: 3
  newton =   2 [    4904] linear =    15 [     44778] cuts =  0 [   0]
  --> SNES Linear/Non-Linear Iterations = 15 / 2
  --> SNES Residual: 0.155033E-15 0.155033E-15 0.495209E-16
  --> max change:  dcmx=   1.4233E-03  dc/dt=   1.5378E-08 [mol/s]
 Maximum Pore Velocity:   8.4986E+01 [m/y]
 CFL Limiting ( 1.0):   5.8697E-03 ->   2.9348E-03 [y]

== REACTIVE TRANSPORT ==========================================================
  0 2r: 9.73E-06 2x: 0.00E+00 2u: 0.00E+00 ir: 3.83E-07 iu: 0.00E+00 rsn:   0
  1 2r: 5.44E-11 2x: 3.77E+01 2u: 4.05E-02 ir: 3.38E-11 iu: 1.41E-03 rsn:   0
  2 2r: 3.36E-16 2x: 3.77E+01 2u: 1.21E-07 ir: 1.20E-16 iu: 3.96E-08 rsn: rtol

 Step   2488 Time=  1.48892E+01 Dt=  2.93480E-03 [y] conv_reason: 3
  newton =   2 [    4906] linear =    15 [     44793] cuts =  0 [   0]
  --> SNES Linear/Non-Linear Iterations = 15 / 2
  --> SNES Residual: 0.336406E-15 0.336406E-15 0.119967E-15
  --> max change:  dcmx=   1.4113E-03  dc/dt=   1.5249E-08 [mol/s]
 Maximum Pore Velocity:   8.4986E+01 [m/y]
 CFL Limiting ( 1.0):   5.8696E-03 ->   2.9348E-03 [y]

== REACTIVE TRANSPORT ==========================================================
  0 2r: 9.67E-06 2x: 0.00E+00 2u: 0.00E+00 ir: 3.80E-07 iu: 0.00E+00 rsn:   0
  1 2r: 5.51E-11 2x: 3.76E+01 2u: 4.04E-02 ir: 3.52E-11 iu: 1.40E-03 rsn:   0
  2 2r: 3.53E-17 2x: 3.76E+01 2u: 1.22E-07 ir: 6.50E-18 iu: 4.04E-08 rsn: rtol

 Step   2489 Time=  1.48922E+01 Dt=  2.93475E-03 [y] conv_reason: 3
  newton =   2 [    4908] linear =    16 [     44809] cuts =  0 [   0]
  --> SNES Linear/Non-Linear Iterations = 16 / 2
  --> SNES Residual: 0.353131E-16 0.353131E-16 0.649844E-17
  --> max change:  dcmx=   1.3997E-03  dc/dt=   1.5124E-08 [mol/s]
 Maximum Pore Velocity:   8.4986E+01 [m/y]
 CFL Limiting ( 1.0):   5.8695E-03 ->   2.9347E-03 [y]

== REACTIVE TRANSPORT ==========================================================
  0 2r: 9.62E-06 2x: 0.00E+00 2u: 0.00E+00 ir: 3.77E-07 iu: 0.00E+00 rsn:   0
  1 2r: 5.67E-11 2x: 3.76E+01 2u: 4.02E-02 ir: 3.89E-11 iu: 1.39E-03 rsn:   0
  2 2r: 3.68E-17 2x: 3.76E+01 2u: 1.23E-07 ir: 8.21E-18 iu: 4.18E-08 rsn: rtol

 Step   2490 Time=  1.48951E+01 Dt=  2.93470E-03 [y] conv_reason: 3
  newton =   2 [    4910] linear =    16 [     44825] cuts =  0 [   0]
  --> SNES Linear/Non-Linear Iterations = 16 / 2
  --> SNES Residual: 0.367944E-16 0.367944E-16 0.821283E-17
  --> max change:  dcmx=   1.3885E-03  dc/dt=   1.5003E-08 [mol/s]
 Maximum Pore Velocity:   8.4986E+01 [m/y]
 CFL Limiting ( 1.0):   5.8694E-03 ->   2.9346E-03 [y]

== REACTIVE TRANSPORT ==========================================================
  0 2r: 9.56E-06 2x: 0.00E+00 2u: 0.00E+00 ir: 3.74E-07 iu: 0.00E+00 rsn:   0
  1 2r: 5.92E-11 2x: 3.76E+01 2u: 4.01E-02 ir: 4.37E-11 iu: 1.38E-03 rsn:   0
  2 2r: 3.05E-17 2x: 3.76E+01 2u: 1.24E-07 ir: 8.02E-18 iu: 4.34E-08 rsn: rtol

 Step   2491 Time=  1.48980E+01 Dt=  2.93465E-03 [y] conv_reason: 3
  newton =   2 [    4912] linear =    16 [     44841] cuts =  0 [   0]
  --> SNES Linear/Non-Linear Iterations = 16 / 2
  --> SNES Residual: 0.304955E-16 0.304955E-16 0.801632E-17
  --> max change:  dcmx=   1.3776E-03  dc/dt=   1.4885E-08 [mol/s]
 Maximum Pore Velocity:   8.4986E+01 [m/y]
 CFL Limiting ( 1.0):   5.8693E-03 ->   2.9346E-03 [y]

== REACTIVE TRANSPORT ==========================================================
  0 2r: 9.51E-06 2x: 0.00E+00 2u: 0.00E+00 ir: 3.71E-07 iu: 0.00E+00 rsn:   0
  1 2r: 6.25E-11 2x: 3.75E+01 2u: 4.00E-02 ir: 4.87E-11 iu: 1.37E-03 rsn:   0
  2 2r: 4.41E-17 2x: 3.75E+01 2u: 1.25E-07 ir: 1.03E-17 iu: 4.52E-08 rsn: rtol

 Step   2492 Time=  1.49010E+01 Dt=  2.93459E-03 [y] conv_reason: 3
  newton =   2 [    4914] linear =    16 [     44857] cuts =  0 [   0]
  --> SNES Linear/Non-Linear Iterations = 16 / 2
  --> SNES Residual: 0.440507E-16 0.440507E-16 0.103202E-16
  --> max change:  dcmx=   1.3670E-03  dc/dt=   1.4771E-08 [mol/s]
 Maximum Pore Velocity:   8.4986E+01 [m/y]
 CFL Limiting ( 1.0):   5.8692E-03 ->   2.9345E-03 [y]

== REACTIVE TRANSPORT ==========================================================
  0 2r: 9.46E-06 2x: 0.00E+00 2u: 0.00E+00 ir: 3.68E-07 iu: 0.00E+00 rsn:   0
  1 2r: 1.21E-10 2x: 3.75E+01 2u: 4.26E-02 ir: 1.06E-10 iu: 1.45E-03 rsn:   0
  2 2r: 4.13E-16 2x: 3.75E+01 2u: 1.80E-07 ir: 1.43E-16 iu: 7.84E-08 rsn: rtol

 Step   2493 Time=  1.49041E+01 Dt=  3.13324E-03 [y] conv_reason: 3
  newton =   2 [    4916] linear =    14 [     44871] cuts =  0 [   0]
  --> SNES Linear/Non-Linear Iterations = 14 / 2
  --> SNES Residual: 0.413246E-15 0.413246E-15 0.143386E-15
  --> max change:  dcmx=   1.4479E-03  dc/dt=   1.4654E-08 [mol/s]
 Maximum Pore Velocity:   8.4986E+01 [m/y]
 CFL Limiting ( 1.0):   6.2665E-03 ->   2.9345E-03 [y]

 --> appending to hdf5 output file: 4-hw7-2D_solute.h5
      0.07 Seconds to write HDF5 file.

== RICHARDS FLOW ===============================================================
  0 2r: 2.43E-04 2x: 0.00E+00 2u: 0.00E+00 ir: 6.08E-05 iu: 0.00E+00 rsn:   0
  1 2r: 1.65E-05 2x: 8.22E+06 2u: 7.66E+04 ir: 1.46E-05 iu: 4.62E+03 rsn:   0
  2 2r: 4.90E-07 2x: 8.23E+06 2u: 1.06E+04 ir: 2.90E-07 iu: 8.43E+02 rsn:   0
  3 2r: 5.71E-08 2x: 8.23E+06 2u: 4.20E+02 ir: 4.25E-08 iu: 5.85E+01 rsn:   0
  4 2r: 1.10E-12 2x: 8.23E+06 2u: 4.86E+00 ir: 1.93E-13 iu: 2.69E-01 rsn: itol_upd

 Step    203 Time=  1.49863E+01 Dt=  8.21918E-02 [y] conv_reason: 11
  newton =   4 [     829] linear =   471 [    109482] cuts =  0 [   0]
  --> SNES Linear/Non-Linear Iterations = 471 / 4
  --> SNES Residual: 0.110418E-11 0.110418E-15 0.193079E-12
  --> max change: dpmx=   4.6152E+03

== REACTIVE TRANSPORT ==========================================================
  0 2r: 1.09E-05 2x: 0.00E+00 2u: 0.00E+00 ir: 2.91E-06 iu: 0.00E+00 rsn:   0
  1 2r: 2.02E-10 2x: 3.75E+01 2u: 3.98E-02 ir: 8.67E-11 iu: 5.68E-03 rsn:   0
  2 2r: 8.68E-16 2x: 3.75E+01 2u: 3.36E-07 ir: 3.51E-16 iu: 6.28E-08 rsn: rtol

 Step   2494 Time=  1.49070E+01 Dt=  2.93449E-03 [y] conv_reason: 3
  newton =   2 [    4918] linear =    13 [     44884] cuts =  0 [   0]
  --> SNES Linear/Non-Linear Iterations = 13 / 2
  --> SNES Residual: 0.868146E-15 0.868146E-15 0.350577E-15
  --> max change:  dcmx=   5.6831E-03  dc/dt=   6.1411E-08 [mol/s]
 Maximum Pore Velocity:   2.7420E+01 [m/y]

== REACTIVE TRANSPORT ==========================================================
  0 2r: 9.38E-06 2x: 0.00E+00 2u: 0.00E+00 ir: 1.28E-06 iu: 0.00E+00 rsn:   0
  1 2r: 3.69E-10 2x: 3.74E+01 2u: 7.44E-02 ir: 1.55E-10 iu: 6.54E-03 rsn:   0
  2 2r: 1.95E-15 2x: 3.74E+01 2u: 1.20E-06 ir: 5.05E-16 iu: 1.65E-07 rsn: rtol

 Step   2495 Time=  1.49129E+01 Dt=  5.86898E-03 [y] conv_reason: 3
  newton =   2 [    4920] linear =    16 [     44900] cuts =  0 [   0]
  --> SNES Linear/Non-Linear Iterations = 16 / 2
  --> SNES Residual: 0.194854E-14 0.194854E-14 0.504625E-15
  --> max change:  dcmx=   6.5421E-03  dc/dt=   3.5347E-08 [mol/s]
 Maximum Pore Velocity:   2.7396E+01 [m/y]

== REACTIVE TRANSPORT ==========================================================
  0 2r: 8.82E-06 2x: 0.00E+00 2u: 0.00E+00 ir: 7.26E-07 iu: 0.00E+00 rsn:   0
  1 2r: 5.15E-10 2x: 3.74E+01 2u: 1.43E-01 ir: 1.26E-10 iu: 7.80E-03 rsn:   0
  2 2r: 2.87E-16 2x: 3.74E+01 2u: 3.68E-06 ir: 5.96E-17 iu: 3.62E-07 rsn: rtol

 Step   2496 Time=  1.49247E+01 Dt=  1.17380E-02 [y] conv_reason: 3
  newton =   2 [    4922] linear =    21 [     44921] cuts =  0 [   0]
  --> SNES Linear/Non-Linear Iterations = 21 / 2
  --> SNES Residual: 0.286773E-15 0.286773E-15 0.595651E-16
  --> max change:  dcmx=   7.7963E-03  dc/dt=   2.1062E-08 [mol/s]
 Maximum Pore Velocity:   2.7359E+01 [m/y]
 CFL Limiting ( 1.0):   2.3476E-02 ->   1.9388E-02 [y]

== REACTIVE TRANSPORT ==========================================================
  0 2r: 8.56E-06 2x: 0.00E+00 2u: 0.00E+00 ir: 4.43E-07 iu: 0.00E+00 rsn:   0
  1 2r: 4.08E-10 2x: 3.72E+01 2u: 2.28E-01 ir: 1.37E-10 iu: 9.34E-03 rsn:   0
  2 2r: 1.89E-15 2x: 3.72E+01 2u: 4.65E-06 ir: 2.93E-16 iu: 3.79E-07 rsn: rtol

 Step   2497 Time=  1.49440E+01 Dt=  1.93879E-02 [y] conv_reason: 3
  newton =   2 [    4924] linear =    23 [     44944] cuts =  0 [   0]
  --> SNES Linear/Non-Linear Iterations = 23 / 2
  --> SNES Residual: 0.188503E-14 0.188503E-14 0.292941E-15
  --> max change:  dcmx=   9.3377E-03  dc/dt=   1.5272E-08 [mol/s]
 Maximum Pore Velocity:   2.7311E+01 [m/y]
 CFL Limiting ( 1.0):   3.8776E-02 ->   1.9862E-02 [y]

== REACTIVE TRANSPORT ==========================================================
  0 2r: 8.37E-06 2x: 0.00E+00 2u: 0.00E+00 ir: 3.46E-07 iu: 0.00E+00 rsn:   0
  1 2r: 4.49E-10 2x: 3.71E+01 2u: 2.28E-01 ir: 1.21E-10 iu: 8.62E-03 rsn:   0
  2 2r: 1.99E-15 2x: 3.71E+01 2u: 5.55E-06 ir: 3.18E-16 iu: 4.41E-07 rsn: rtol

 Step   2498 Time=  1.49639E+01 Dt=  1.98619E-02 [y] conv_reason: 3
  newton =   2 [    4926] linear =    23 [     44967] cuts =  0 [   0]
  --> SNES Linear/Non-Linear Iterations = 23 / 2
  --> SNES Residual: 0.198524E-14 0.198524E-14 0.318190E-15
  --> max change:  dcmx=   8.6202E-03  dc/dt=   1.3762E-08 [mol/s]
 Maximum Pore Velocity:   2.7279E+01 [m/y]
 CFL Limiting ( 1.0):   3.9724E-02 ->   2.0348E-02 [y]

== REACTIVE TRANSPORT ==========================================================
  0 2r: 8.22E-06 2x: 0.00E+00 2u: 0.00E+00 ir: 3.15E-07 iu: 0.00E+00 rsn:   0
  1 2r: 4.82E-10 2x: 3.70E+01 2u: 2.28E-01 ir: 1.22E-10 iu: 8.16E-03 rsn:   0
  2 2r: 1.86E-15 2x: 3.70E+01 2u: 6.21E-06 ir: 2.63E-16 iu: 4.85E-07 rsn: rtol

 Step   2499 Time=  1.49842E+01 Dt=  2.03476E-02 [y] conv_reason: 3
  newton =   2 [    4928] linear =    24 [     44991] cuts =  0 [   0]
  --> SNES Linear/Non-Linear Iterations = 24 / 2
  --> SNES Residual: 0.186266E-14 0.186266E-14 0.263159E-15
  --> max change:  dcmx=   8.1627E-03  dc/dt=   1.2721E-08 [mol/s]
 Maximum Pore Velocity:   2.7253E+01 [m/y]
 CFL Limiting ( 1.0):   4.0695E-02 ->   2.0845E-02 [y]

== REACTIVE TRANSPORT ==========================================================
  0 2r: 8.08E-06 2x: 0.00E+00 2u: 0.00E+00 ir: 3.01E-07 iu: 0.00E+00 rsn:   0
  1 2r: 1.52E-10 2x: 3.69E+01 2u: 2.28E-02 ir: 5.87E-11 iu: 7.97E-04 rsn:   0
  2 2r: 4.54E-16 2x: 3.69E+01 2u: 2.12E-07 ir: 1.51E-16 iu: 4.19E-08 rsn: rtol

 Step   2500 Time=  1.49863E+01 Dt=  2.05298E-03 [y] conv_reason: 3
  newton =   2 [    4930] linear =    12 [     45003] cuts =  0 [   0]
  --> SNES Linear/Non-Linear Iterations = 12 / 2
  --> SNES Residual: 0.454240E-15 0.454240E-15 0.150514E-15
  --> max change:  dcmx=   7.9652E-04  dc/dt=   1.2303E-08 [mol/s]
 Maximum Pore Velocity:   2.7250E+01 [m/y]

 --> appending to hdf5 output file: 4-hw7-2D_solute.h5
      0.06 Seconds to write HDF5 file.

== RICHARDS FLOW ===============================================================
  0 2r: 2.84E-04 2x: 0.00E+00 2u: 0.00E+00 ir: 6.08E-05 iu: 0.00E+00 rsn:   0
  1 2r: 1.20E-05 2x: 8.24E+06 2u: 6.39E+04 ir: 6.77E-06 iu: 4.65E+03 rsn:   0
  2 2r: 3.11E-07 2x: 8.25E+06 2u: 6.94E+03 ir: 1.26E-07 iu: 8.35E+02 rsn:   0
  3 2r: 5.56E-10 2x: 8.25E+06 2u: 2.54E+02 ir: 1.40E-10 iu: 5.01E+01 rsn:   0
  4 2r: 9.33E-14 2x: 8.25E+06 2u: 9.33E-01 ir: 2.36E-14 iu: 2.08E-01 rsn: itol_upd

 Step    204 Time=  1.50000E+01 Dt=  1.36986E-02 [y] conv_reason: 11
  newton =   4 [     833] linear =   345 [    109827] cuts =  0 [   0]
  --> SNES Linear/Non-Linear Iterations = 345 / 4
  --> SNES Residual: 0.933066E-13 0.933066E-17 0.235959E-13
  --> max change: dpmx=   4.6531E+03

== REACTIVE TRANSPORT ==========================================================
  0 2r: 1.19E-03 2x: 0.00E+00 2u: 0.00E+00 ir: 3.95E-04 iu: 0.00E+00 rsn:   0
  1 2r: 2.05E-08 2x: 3.73E+01 2u: 1.69E+00 ir: 7.67E-09 iu: 2.41E-01 rsn:   0
  2 2r: 1.59E-13 2x: 3.73E+01 2u: 8.08E-05 ir: 6.66E-14 iu: 1.15E-05 rsn: rtol

 Step   2501 Time=  1.50000E+01 Dt=  1.36986E-02 [y] conv_reason: 3
  newton =   2 [    4932] linear =    30 [     45033] cuts =  0 [   0]
  --> SNES Linear/Non-Linear Iterations = 30 / 2
  --> SNES Residual: 0.158590E-12 0.158590E-12 0.665989E-13
  --> max change:  dcmx=   2.4064E-01  dc/dt=   5.5704E-07 [mol/s]
 Maximum Pore Velocity:   7.7319E+01 [m/y]
 CFL Limiting ( 1.0):   2.7397E-02 ->   3.6178E-03 [y]

 --> appending to hdf5 output file: 4-hw7-2D_solute.h5
      0.06 Seconds to write HDF5 file.

PMCSubsurfaceFlow
 Total Time: 8.3746E+02 seconds

 FLOW TS SNES steps = 204  newton = 833  linear = 109827  cuts = 0
 FLOW TS SNES Wasted Linear Iterations = 0
 FLOW TS SNES Wasted Newton Iterations = 0
 FLOW TS SNES time = 835.4 seconds

PMCSubsurfaceTransport
 Total Time: 5.4742E+02 seconds

 TRAN TS SNES steps = 2501  newton = 4932  linear = 45033  cuts = 0
 TRAN TS SNES Wasted Linear Iterations = 0
 TRAN TS SNES Wasted Newton Iterations = 0
 TRAN TS SNES time = 524.3 seconds

 Wall Clock Time:  1.4047E+03 [sec]   2.3411E+01 [min]   3.9018E-01 [hr]
